Version 4
SHEET 1 1676 680
WIRE -848 -176 -880 -176
WIRE -704 -176 -848 -176
WIRE -608 -176 -704 -176
WIRE -512 -176 -608 -176
WIRE -176 -176 -512 -176
WIRE -128 -176 -176 -176
WIRE 0 -176 -48 -176
WIRE 32 -176 0 -176
WIRE 160 -176 96 -176
WIRE 336 -176 160 -176
WIRE 432 -176 336 -176
WIRE 528 -176 432 -176
WIRE 624 -176 528 -176
WIRE -848 -160 -848 -176
WIRE -704 -160 -704 -176
WIRE -608 -160 -608 -176
WIRE -512 -160 -512 -176
WIRE 336 -160 336 -176
WIRE 432 -160 432 -176
WIRE 528 -160 528 -176
WIRE -176 -128 -176 -176
WIRE 160 -112 160 -176
WIRE -848 -64 -848 -80
WIRE -320 -64 -848 -64
WIRE 0 -64 0 -176
WIRE 0 -64 -32 -64
WIRE -848 -48 -848 -64
WIRE -320 16 -416 16
WIRE 160 16 160 -32
WIRE 160 16 -32 16
WIRE 240 16 160 16
WIRE -320 96 -352 96
WIRE 160 96 -32 96
WIRE 256 96 160 96
WIRE 0 112 0 -64
WIRE 160 112 160 96
WIRE 256 144 256 96
WIRE -416 176 -416 16
WIRE -352 176 -352 96
WIRE 0 192 0 176
WIRE 160 192 160 176
WIRE -848 272 -848 32
WIRE -848 272 -880 272
WIRE -704 272 -704 -96
WIRE -704 272 -848 272
WIRE -608 272 -608 -96
WIRE -608 272 -704 272
WIRE -512 272 -512 -96
WIRE -512 272 -608 272
WIRE -416 272 -416 240
WIRE -416 272 -512 272
WIRE -352 272 -352 256
WIRE -352 272 -416 272
WIRE -176 272 -176 160
WIRE -176 272 -352 272
WIRE 0 272 -176 272
WIRE 160 272 0 272
WIRE 256 272 256 208
WIRE 256 272 160 272
WIRE 336 272 336 -96
WIRE 336 272 256 272
WIRE 432 272 432 -96
WIRE 432 272 336 272
WIRE 528 272 528 -96
WIRE 528 272 432 272
FLAG -880 -176 IN
FLAG 240 16 FB
FLAG 624 -176 OUT
FLAG -880 272 COMM
SYMBOL PowerProducts\\LT3580 -176 16 R0
SYMATTR InstName U1
SYMBOL ind -144 -160 R270
WINDOW 0 61 57 VTop 2
WINDOW 3 63 57 VBottom 2
SYMATTR InstName L1
SYMATTR Value 3.3µ
SYMATTR SpiceLine Rser=28m
SYMBOL schottky 32 -160 R270
WINDOW 0 57 30 VTop 2
WINDOW 3 61 33 VBottom 2
SYMATTR InstName D1
SYMATTR Value MBRS340
SYMATTR Description Diode
SYMATTR Type diode
SYMBOL cap 416 -160 R0
WINDOW 0 40 21 Left 2
WINDOW 3 36 44 Left 2
SYMATTR InstName C1
SYMATTR Value 10µ
SYMATTR SpiceLine V=25 Irms=0 Rser=0.001 Lser=2n
SYMBOL cap 176 176 R180
WINDOW 0 -21 59 Bottom 2
WINDOW 3 -18 5 Top 2
WINDOW 39 -65 -5 Top 2
SYMATTR InstName C2
SYMATTR Value 1n
SYMBOL res -368 160 R0
WINDOW 3 36 67 Left 2
SYMATTR Value 170k
SYMATTR InstName R1
SYMBOL cap -432 176 R0
WINDOW 0 -39 26 Left 2
WINDOW 3 -36 51 Left 2
SYMATTR InstName C3
SYMATTR Value 100n
SYMBOL res 176 -16 R180
WINDOW 0 -38 70 Left 2
WINDOW 3 -77 44 Left 2
SYMATTR InstName R2
SYMATTR Value 79.71k
SYMBOL cap -624 -160 R0
WINDOW 0 36 23 Left 2
WINDOW 3 34 46 Left 2
SYMATTR InstName C4
SYMATTR Value 10µ
SYMATTR SpiceLine V=25 Irms=0 Rser=0.001 Lser=2n
SYMBOL cap 320 -160 R0
WINDOW 0 31 19 Left 2
WINDOW 3 31 46 Left 2
SYMATTR InstName C7
SYMATTR Value 10n
SYMATTR SpiceLine V=25 Irms=0 Rser=0.001 Lser=0.5n
SYMBOL cap -528 -160 R0
WINDOW 0 34 26 Left 2
WINDOW 3 32 49 Left 2
SYMATTR InstName C9
SYMATTR Value 10n
SYMATTR SpiceLine V=25 Irms=0 Rser=0.001 Lser=0.5n
SYMBOL res -16 176 R0
WINDOW 3 35 66 Left 2
SYMATTR Value 10
SYMATTR InstName R3
SYMBOL cap -16 112 R0
WINDOW 0 38 19 Left 2
WINDOW 3 40 46 Left 2
SYMATTR InstName C11
SYMATTR Value 1n
SYMATTR SpiceLine Lser=0.5n
SYMBOL res 144 176 R0
WINDOW 0 40 40 Left 2
WINDOW 3 39 67 Left 2
SYMATTR InstName R4
SYMATTR Value 20k
SYMBOL res -864 -176 R0
SYMATTR InstName R5
SYMATTR Value 15k
SYMBOL res -864 -64 R0
SYMATTR InstName R6
SYMATTR Value 10k
SYMBOL cap 512 -160 R0
WINDOW 0 40 21 Left 2
WINDOW 3 36 44 Left 2
SYMATTR InstName C5
SYMATTR Value 10µ
SYMATTR SpiceLine V=25 Irms=0 Rser=0.001 Lser=2n
SYMBOL cap -720 -160 R0
WINDOW 0 36 23 Left 2
WINDOW 3 34 46 Left 2
SYMATTR InstName C8
SYMATTR Value 10µ
SYMATTR SpiceLine V=25 Irms=0 Rser=0.001 Lser=2n
SYMBOL cap 272 208 R180
WINDOW 0 -21 59 Bottom 2
WINDOW 3 -18 5 Top 2
WINDOW 39 -65 -5 Top 2
SYMATTR InstName C6
SYMATTR Value 47p
TEXT -472 -80 Left 2 ;UVLO=3.48V
TEXT -184 320 Left 2 !.softstart .3
