Version 4
SHEET 1 1132 680
WIRE 240 144 240 64
WIRE 416 144 240 144
WIRE 416 224 416 144
WIRE 448 224 416 224
WIRE 528 224 528 64
WIRE 528 224 480 224
WIRE 448 272 448 224
WIRE 480 272 480 224
WIRE 688 368 464 368
WIRE 960 400 832 400
WIRE 1056 400 960 400
WIRE 688 432 656 432
WIRE 656 528 656 432
WIRE 960 528 960 400
WIRE 960 528 656 528
WIRE 240 576 240 144
WIRE 720 576 720 480
WIRE 720 576 240 576
FLAG 720 320 0
FLAG 768 320 0
FLAG 1056 400 OUT
FLAG 240 64 IN+
FLAG 528 64 IN-
SYMBOL Opamps\\LT1782 720 400 M180
SYMATTR InstName U1
SYMBOL ota 528 304 R90
WINDOW 0 -66 126 Left 2
WINDOW 39 -71 154 Left 2
SYMATTR InstName X1
SYMATTR SpiceLine Ilimit=20m Gm=50m Ro=1k
