Version 4
SHEET 1 1756 844
WIRE -272 128 -416 128
WIRE -224 128 -272 128
WIRE 64 144 -128 144
WIRE 96 144 64 144
WIRE -224 160 -256 160
WIRE -256 176 -256 160
FLAG -256 176 0
FLAG -416 208 0
FLAG 64 144 out
FLAG -272 128 in
SYMBOL voltage -416 112 R0
WINDOW 0 36 44 Left 2
WINDOW 3 36 95 Left 2
WINDOW 123 37 68 Left 2
WINDOW 39 0 0 Left 2
SYMATTR InstName V1
SYMATTR Value PULSE(-100m 100m 1m 5m)
SYMATTR Value2 AC 10m
SYMBOL ota -192 208 M180
WINDOW 0 -12 132 Left 2
WINDOW 39 -13 109 Left 2
SYMATTR InstName X1
SYMATTR SpiceLine Ilimit=12u Gm=230u Ro=305k
TEXT -376 272 Left 2 !.tran 20m
TEXT -376 304 Left 2 !;ac oct 100 1 1Meg
