Version 4
SHEET 1 880 680
WIRE 320 -272 304 -272
WIRE -336 -224 -352 -224
WIRE -192 -224 -336 -224
WIRE -80 -224 -192 -224
WIRE -16 -224 -80 -224
WIRE 240 -224 240 -272
WIRE 240 -224 64 -224
WIRE 320 -224 320 -272
WIRE 368 -224 320 -224
WIRE 544 -224 368 -224
WIRE 768 -224 704 -224
WIRE -192 -208 -192 -224
WIRE -80 -208 -80 -224
WIRE -352 -192 -352 -224
WIRE 544 -176 528 -176
WIRE 528 -144 528 -176
WIRE -192 -112 -192 -128
WIRE 368 -96 368 -224
WIRE -352 0 -352 -112
WIRE 96 0 96 -16
WIRE 368 0 368 -32
WIRE 0 288 -112 288
WIRE 272 288 160 288
WIRE 0 336 -16 336
WIRE -112 368 -112 288
WIRE -16 368 -16 336
FLAG -16 368 0
FLAG 272 368 0
FLAG -112 368 0
FLAG 96 0 0
FLAG -352 0 0
FLAG 368 0 0
FLAG 528 -144 0
FLAG -336 -224 IN
FLAG 768 -144 0
FLAG -80 -144 0
FLAG -192 -48 0
SYMBOL boost-converter_input-filter 64 288 R0
SYMATTR InstName X1
SYMBOL voltage 272 272 R0
WINDOW 0 37 59 Left 2
WINDOW 3 40 32 Left 2
WINDOW 123 38 82 Left 2
WINDOW 39 0 0 Left 2
SYMATTR InstName V1
SYMATTR Value 1
SYMATTR Value2 AC 1
SYMBOL ind -32 -208 R270
WINDOW 0 32 56 VTop 2
WINDOW 3 5 56 VBottom 2
SYMATTR InstName L1
SYMATTR Value 6.8µ
SYMATTR SpiceLine Rser=50m
SYMBOL res 80 -112 R0
SYMATTR InstName R1
SYMATTR Value 50m
SYMBOL voltage -352 -208 R0
WINDOW 0 -66 31 Left 2
WINDOW 3 -58 56 Left 2
WINDOW 123 -86 81 Left 2
WINDOW 39 0 0 Left 2
SYMATTR InstName V3
SYMATTR Value 1
SYMATTR Value2 AC 1
SYMBOL cap 352 -96 R0
SYMATTR InstName C2
SYMATTR Value 20µ
SYMATTR SpiceLine Rser=10m Lser=2n
SYMBOL res 224 -208 R270
WINDOW 0 -31 51 VTop 2
WINDOW 3 -36 53 VBottom 2
SYMATTR InstName R3
SYMATTR Value 100m
SYMBOL boost-converter_output-filter 608 -224 R0
SYMATTR InstName X2
SYMBOL cap 240 -256 R270
WINDOW 0 66 33 VTop 2
WINDOW 3 65 35 VBottom 2
SYMATTR InstName C4
SYMATTR Value 200p
SYMBOL res 752 -240 R0
SYMATTR InstName R4
SYMATTR Value 26R
SYMBOL cap -96 -208 R0
WINDOW 0 38 17 Left 2
WINDOW 3 37 43 Left 2
SYMATTR InstName C5
SYMATTR Value 20µ
SYMATTR SpiceLine Rser=20m
SYMBOL cap -208 -112 R0
WINDOW 0 36 22 Left 2
WINDOW 3 37 45 Left 2
SYMATTR InstName C6
SYMATTR Value 10µ
SYMATTR SpiceLine V=25 Irms=0 Rser=50m Lser=3n
SYMBOL res -208 -224 R0
SYMATTR InstName R5
SYMATTR Value 0.33
TEXT -56 424 Left 2 !.ac oct 1000 1 50Meg
TEXT -56 464 Left 2 ;.step param R 0.1 1 0.1
TEXT 184 -368 Left 2 ;STPS340 SS-model
TEXT 248 32 Right 2 ;LT3580 - Internal Switch
TEXT 800 -64 Right 2 ;LT3580 - Output Capacitors
