Version 4
SHEET 1 2512 680
WIRE 1328 -256 1264 -256
WIRE 1504 -256 1328 -256
WIRE 1712 -256 1664 -256
WIRE 1728 -256 1712 -256
WIRE 1264 -240 1264 -256
WIRE 1504 -208 1472 -208
WIRE 1472 -160 1472 -208
FLAG 1472 -160 0
FLAG 1264 -160 0
FLAG 1328 -256 in
FLAG 1712 -256 out
SYMBOL boost-converter_output-filter 1568 -256 R0
SYMATTR InstName X3
SYMBOL voltage 1264 -256 R0
WINDOW 0 35 31 Left 2
WINDOW 3 37 57 Left 2
WINDOW 123 36 86 Left 2
WINDOW 39 0 0 Left 2
SYMATTR InstName V1
SYMATTR Value 0V
SYMATTR Value2 AC 1V
TEXT 976 -216 Left 2 ;.step param R 0.1 1 0.1
TEXT 976 -184 Left 2 !.ac oct 100 1 1Meg
TEXT 976 -304 Left 2 ;Optymalny rezystor 0.5-0.6R
