Version 4
SHEET 1 2512 680
WIRE 1168 -256 720 -256
WIRE 1200 -256 1168 -256
WIRE 1728 -256 1200 -256
WIRE 1872 -256 1728 -256
WIRE 720 -240 720 -256
WIRE 1200 -240 1200 -256
WIRE 400 -224 288 -224
WIRE 448 -224 400 -224
WIRE 560 -208 544 -208
WIRE 448 -192 416 -192
WIRE 416 -176 416 -192
WIRE 1904 -176 1872 -176
WIRE 1200 -160 1200 -176
WIRE 1728 -160 1728 -176
WIRE 1904 -160 1904 -176
WIRE 1872 -144 1872 -176
WIRE 2000 -128 1920 -128
WIRE 1920 -64 1920 -80
WIRE 1920 -64 1872 -64
WIRE 1872 -48 1872 -64
WIRE 576 -32 576 -48
WIRE 288 240 288 -224
FLAG 400 -224 Vc
FLAG 720 -160 0
FLAG 1200 -160 0
FLAG 1168 -256 Vout
FLAG 576 48 0
FLAG 576 -48 Vin
FLAG 1872 -48 0
FLAG 2000 -48 0
FLAG 416 -176 0
FLAG 560 -208 Ivin
FLAG 1728 -160 0
FLAG 1904 -160 0
FLAG 288 320 0
SYMBOL bi 720 -160 R180
WINDOW 0 -71 52 Left 2
WINDOW 3 -337 116 Left 2
SYMATTR InstName B2
SYMATTR Value I=limit(0, ((n*V(Vin))/V(Vout))*V(Ivin), 2)
SYMBOL cap 1184 -240 R0
WINDOW 0 37 11 Left 2
WINDOW 3 37 61 Left 2
WINDOW 39 39 37 Left 2
SYMATTR InstName C1
SYMATTR Value 20µF
SYMATTR SpiceLine Rser=10m
SYMBOL voltage 576 -48 R0
WINDOW 0 34 37 Left 2
WINDOW 3 34 66 Left 2
WINDOW 123 34 116 Left 2
WINDOW 39 0 0 Left 2
SYMATTR InstName V3
SYMATTR Value 5V
SYMBOL res 1856 -272 R0
WINDOW 3 37 63 Left 2
SYMATTR Value 80R
SYMATTR InstName R4
SYMBOL sw 1872 -48 R180
WINDOW 0 43 36 Left 2
WINDOW 3 44 66 Left 2
SYMATTR InstName S1
SYMBOL voltage 2000 -144 R0
WINDOW 0 -12 -2 Left 2
WINDOW 3 -299 143 Left 2
WINDOW 123 0 0 Left 2
WINDOW 39 0 0 Left 2
SYMATTR InstName V1
SYMATTR Value PULSE(0 5 2m 1n 1n 2m 4m 3)
SYMBOL ota 480 -144 M180
WINDOW 0 -48 153 Left 2
WINDOW 39 -148 129 Left 2
SYMATTR InstName X2
SYMATTR SpiceLine Ilimit=2 Gm=7 Ro=1R
SYMBOL res 1712 -272 R0
WINDOW 0 36 42 Left 2
WINDOW 3 36 65 Left 2
SYMATTR InstName R2
SYMATTR Value 40R
SYMBOL voltage 288 224 R0
WINDOW 0 37 44 Left 2
WINDOW 3 39 77 Left 2
WINDOW 123 39 105 Left 2
WINDOW 39 0 0 Left 2
SYMATTR InstName V2
SYMATTR Value 0.1
SYMATTR Value2 AC 10m
TEXT 1304 176 Left 2 !;tran 0 20m 0 1u
TEXT 1304 144 Left 2 !.param n 0.88
TEXT 1304 -8 Left 2 !.param Cf 47p\n.param Rc 27k\n.param Cc 1n\n.param Cpl 0p\n.param Ra 79.71k
TEXT 1608 32 Left 2 !.model SW SW(Ron=0.001, Vt=1, Vh=1)
TEXT 1304 216 Left 2 !.ac oct 1000 10 10Meg
