Version 4
SHEET 1 3288 1156
WIRE 1856 256 1792 256
WIRE 1984 256 1920 256
WIRE 1072 336 944 336
WIRE 1104 336 1072 336
WIRE 1200 336 1184 336
WIRE 1296 336 1200 336
WIRE 1648 368 1520 368
WIRE 1792 368 1792 256
WIRE 1792 368 1728 368
WIRE 1840 368 1792 368
WIRE 1984 368 1984 256
WIRE 1984 368 1920 368
WIRE 2144 368 1984 368
WIRE 2240 368 2144 368
WIRE 944 448 944 336
WIRE 1792 528 1792 368
WIRE 1824 528 1792 528
WIRE 1984 560 1984 368
WIRE 1984 560 1968 560
WIRE 1072 576 1072 336
WIRE 1072 576 1040 576
WIRE 1232 576 1072 576
WIRE 1552 592 1376 592
WIRE 1664 592 1632 592
WIRE 1744 592 1664 592
WIRE 1824 592 1744 592
WIRE 1200 624 1200 336
WIRE 1232 624 1200 624
WIRE 1744 640 1744 592
WIRE 1664 656 1664 592
WIRE 1040 720 1040 576
WIRE 1200 720 1200 624
WIRE 1040 848 1040 800
WIRE 1200 848 1200 800
WIRE 992 976 816 976
WIRE 1360 976 1248 976
WIRE 1440 976 1360 976
WIRE 1552 976 1440 976
WIRE 1568 976 1552 976
WIRE 816 992 816 976
WIRE 1440 992 1440 976
WIRE 1120 1136 1120 1104
FLAG 944 528 0
FLAG 1904 640 0
FLAG 1856 640 0
FLAG 1856 480 Vin
FLAG 944 336 V3
FLAG 1744 720 0
FLAG 1664 720 0
FLAG 1520 368 0
FLAG 1296 416 0
FLAG 2144 368 out1
FLAG 816 1072 0
FLAG 1120 1136 0
FLAG 1360 1056 0
FLAG 1440 1056 0
FLAG 1552 976 out2
SYMBOL voltage 944 432 R0
WINDOW 0 34 37 Left 2
WINDOW 3 34 66 Left 2
WINDOW 123 34 116 Left 2
WINDOW 39 0 0 Left 2
SYMATTR InstName V3
SYMATTR Value 3.5V
SYMBOL res 1200 320 R90
WINDOW 0 0 56 VBottom 2
WINDOW 3 32 56 VTop 2
SYMATTR InstName R3
SYMATTR Value 0.068
SYMBOL max4372 1296 608 R0
SYMATTR InstName X4
SYMBOL Opamps\\LT1782 1856 560 R0
SYMATTR InstName U2
SYMBOL res 1824 352 M90
WINDOW 0 0 56 VBottom 2
WINDOW 3 32 56 VTop 2
SYMATTR InstName R10
SYMATTR Value 100k
SYMBOL res 1536 576 M90
WINDOW 0 0 56 VBottom 2
WINDOW 3 32 56 VTop 2
SYMATTR InstName R11
SYMATTR Value 100k
SYMBOL res 1728 736 M180
WINDOW 0 39 68 Left 2
WINDOW 3 36 45 Left 2
SYMATTR InstName R13
SYMATTR Value 100k
SYMBOL res 1744 384 M270
WINDOW 0 32 56 VTop 2
WINDOW 3 0 56 VBottom 2
SYMATTR InstName R14
SYMATTR Value 100k
SYMBOL cap 1648 656 R0
WINDOW 0 38 22 Left 2
WINDOW 3 35 42 Left 2
SYMATTR InstName C4
SYMATTR Value 1n
SYMBOL cap 1920 240 R90
WINDOW 0 0 32 VBottom 2
WINDOW 3 32 32 VTop 2
SYMATTR InstName C8
SYMATTR Value 1n
SYMBOL current 1296 336 R0
WINDOW 0 38 32 Left 2
WINDOW 3 38 59 Left 2
WINDOW 123 38 87 Left 2
WINDOW 39 0 0 Left 2
SYMATTR InstName I1
SYMATTR Value 0
SYMATTR Value2 AC 100m
SYMBOL PowerProducts\\LT6105 1120 976 R0
SYMATTR InstName U1
SYMBOL res 1184 704 R0
SYMATTR InstName R1
SYMATTR Value 100k
SYMBOL res 1024 704 R0
SYMATTR InstName R2
SYMATTR Value 100k
SYMBOL voltage 816 976 R0
WINDOW 0 37 44 Left 2
WINDOW 3 38 73 Left 2
WINDOW 123 0 0 Left 2
WINDOW 39 0 0 Left 2
SYMATTR InstName V1
SYMATTR Value 3V
SYMBOL res 1344 960 R0
WINDOW 0 36 46 Left 2
WINDOW 3 36 71 Left 2
SYMATTR InstName R4
SYMATTR Value 2k
SYMBOL cap 1424 992 R0
WINDOW 0 37 19 Left 2
WINDOW 3 39 41 Left 2
SYMATTR InstName C1
SYMATTR Value 200n
TEXT 1304 216 Left 2 !.ac oct 1000 10 10Meg
