Version 4
SHEET 1 2512 680
WIRE 1136 -256 720 -256
WIRE 1168 -256 1136 -256
WIRE 1200 -256 1168 -256
WIRE 1504 -256 1200 -256
WIRE 1728 -256 1664 -256
WIRE 1872 -256 1728 -256
WIRE 720 -240 720 -256
WIRE 1200 -240 1200 -256
WIRE 400 -224 288 -224
WIRE 448 -224 400 -224
WIRE 560 -208 544 -208
WIRE 1504 -208 1472 -208
WIRE 448 -192 416 -192
WIRE 416 -176 416 -192
WIRE 1904 -176 1872 -176
WIRE 1200 -160 1200 -176
WIRE 1472 -160 1472 -208
WIRE 1728 -160 1728 -176
WIRE 1904 -160 1904 -176
WIRE 1872 -144 1872 -176
WIRE 2000 -128 1920 -128
WIRE 1136 -96 1136 -256
WIRE 1920 -64 1920 -80
WIRE 1920 -64 1872 -64
WIRE 1872 -48 1872 -64
WIRE 1136 96 1136 -16
WIRE 1136 96 1056 96
WIRE 1056 112 1056 96
WIRE 880 192 832 192
WIRE 896 192 880 192
WIRE 1056 192 1056 176
WIRE 1056 192 896 192
WIRE 1136 192 1136 176
WIRE 1136 192 1056 192
WIRE 880 208 880 192
WIRE 720 224 528 224
WIRE 784 224 784 208
WIRE 784 224 720 224
WIRE 832 224 832 192
WIRE 832 224 784 224
WIRE 288 240 288 -224
WIRE 384 240 288 240
WIRE 432 240 384 240
WIRE 384 256 384 240
WIRE 720 256 528 256
WIRE 784 256 720 256
WIRE 832 256 784 256
WIRE 784 272 784 256
WIRE 832 288 832 256
WIRE 880 288 832 288
WIRE 288 304 288 240
WIRE 384 352 384 336
WIRE 1088 352 1088 336
WIRE 288 416 288 368
WIRE 384 416 288 416
WIRE 384 432 384 416
FLAG 400 -224 Vc
FLAG 720 -160 0
FLAG 1200 -160 0
FLAG 720 224 Vgma_i
FLAG 1168 -256 Vout
FLAG 784 352 0
FLAG 384 432 0
FLAG 784 128 0
FLAG 896 192 FB
FLAG 720 256 Vgma_ni
FLAG 1088 512 0
FLAG 1088 336 Vin
FLAG 1872 -48 0
FLAG 2000 -48 0
FLAG 416 -176 0
FLAG 560 -208 Ivin
FLAG 1728 -160 0
FLAG 1472 -160 0
FLAG 1904 -160 0
SYMBOL bi 720 -160 R180
WINDOW 0 -71 52 Left 2
WINDOW 3 -337 116 Left 2
SYMATTR InstName B2
SYMATTR Value I=limit(0, ((n*V(Vin))/V(Vout))*V(Ivin), 2)
SYMBOL cap 1184 -240 R0
WINDOW 0 37 11 Left 2
WINDOW 3 37 61 Left 2
WINDOW 39 39 37 Left 2
SYMATTR InstName C1
SYMATTR Value 20µF
SYMATTR SpiceLine Rser=10m Lser=3n
SYMBOL voltage 784 256 R0
WINDOW 0 37 58 Left 2
WINDOW 3 36 81 Left 2
WINDOW 123 36 109 Left 2
WINDOW 39 0 0 Left 2
SYMATTR InstName V2
SYMATTR Value 1.215V
SYMBOL res 864 192 R0
WINDOW 3 35 69 Left 2
SYMATTR Value 14.6k
SYMATTR InstName R5
SYMBOL res 768 112 R0
WINDOW 0 36 36 Left 2
WINDOW 3 35 58 Left 2
SYMATTR InstName R6
SYMATTR Value 14.6k
SYMBOL res 1120 80 R0
WINDOW 3 36 67 Left 2
SYMATTR Value {Ra}
SYMATTR InstName R1
SYMBOL res 368 240 R0
SYMATTR InstName R8
SYMATTR Value {Rc}
SYMBOL cap 368 352 R0
SYMATTR InstName C2
SYMATTR Value {Cc}
SYMBOL voltage 1088 336 R0
WINDOW 0 34 37 Left 2
WINDOW 3 34 66 Left 2
WINDOW 123 34 116 Left 2
WINDOW 39 0 0 Left 2
SYMATTR InstName V3
SYMATTR Value 3.5V
SYMBOL cap 272 304 R0
SYMATTR InstName C3
SYMATTR Value {Cf}
SYMBOL cap 1040 112 R0
SYMATTR InstName C4
SYMATTR Value {Cpl}
SYMBOL res 1856 -272 R0
WINDOW 3 37 63 Left 2
SYMATTR Value 80R
SYMATTR InstName R4
SYMBOL sw 1872 -48 R180
WINDOW 0 43 36 Left 2
WINDOW 3 44 66 Left 2
SYMATTR InstName S1
SYMBOL voltage 2000 -144 R0
WINDOW 0 -12 -2 Left 2
WINDOW 3 -299 143 Left 2
WINDOW 123 0 0 Left 2
WINDOW 39 0 0 Left 2
SYMATTR InstName V1
SYMATTR Value PULSE(0 5 2m 1n 1n 2m 4m 3)
SYMBOL ota 496 176 M0
WINDOW 0 -36 -12 Left 2
WINDOW 39 -150 13 Left 2
SYMATTR InstName X1
SYMATTR SpiceLine Ilimit=12u Gm=230u Ro=305k
SYMBOL ota 480 -144 M180
WINDOW 0 -48 153 Left 2
WINDOW 39 -148 129 Left 2
SYMATTR InstName X2
SYMATTR SpiceLine Ilimit=2 Gm=7 Ro=1R
SYMBOL voltage 1136 -112 R0
WINDOW 0 40 27 Left 2
WINDOW 3 40 77 Left 2
WINDOW 123 40 53 Left 2
WINDOW 39 40 98 Left 2
SYMATTR InstName V4
SYMATTR Value 0V
SYMATTR Value2 AC 1
SYMATTR SpiceLine Rser=10
SYMBOL res 1712 -272 R0
WINDOW 0 36 42 Left 2
WINDOW 3 36 65 Left 2
SYMATTR InstName R2
SYMATTR Value 40R
SYMBOL boost-converter_output-filter 1568 -256 R0
SYMATTR InstName X3
SYMBOL res 1072 416 R0
SYMATTR InstName R3
SYMATTR Value 0.01
TEXT 1304 176 Left 2 !;tran 0 20m 0 1u
TEXT 1304 144 Left 2 !.param n 0.88
TEXT 1304 -8 Left 2 !.param Cf 47p\n.param Rc 27k\n.param Cc 1n\n.param Cpl 0p\n.param Ra 68.02k
TEXT 1608 32 Left 2 !.model SW SW(Ron=0.001, Vt=1, Vh=1)
TEXT 1304 216 Left 2 !.ac oct 1000 10 10Meg
