Version 4
SHEET 1 3288 1092
WIRE 2256 112 2208 112
WIRE 2464 112 2336 112
WIRE 2208 224 2208 112
WIRE 2256 224 2208 224
WIRE 2464 224 2464 112
WIRE 2464 224 2320 224
WIRE 2096 368 2080 368
WIRE 2208 368 2208 224
WIRE 2208 368 2176 368
WIRE 2240 368 2208 368
WIRE 2464 400 2464 224
WIRE 2464 400 2384 400
WIRE 2592 400 2464 400
WIRE 2640 400 2592 400
WIRE 1872 432 1856 432
WIRE 1952 432 1872 432
WIRE 2080 432 2032 432
WIRE 2144 432 2080 432
WIRE 2240 432 2144 432
WIRE 2144 496 2144 432
WIRE 2080 512 2080 432
WIRE 1856 528 1856 432
FLAG 2576 608 0
FLAG 2272 320 supp
FLAG 1856 608 0
FLAG 2576 528 supp
FLAG 2080 368 0
FLAG 2592 400 out
FLAG 1872 432 in
FLAG 2704 608 0
FLAG 2704 528 supn
FLAG 2272 480 supn
FLAG 2320 480 supn
FLAG 2080 576 0
FLAG 2144 576 0
SYMBOL voltage 2576 512 R0
WINDOW 0 34 37 Left 2
WINDOW 3 34 66 Left 2
WINDOW 123 34 116 Left 2
WINDOW 39 0 0 Left 2
SYMATTR InstName V3
SYMATTR Value 15V
SYMBOL Opamps\\LT1782 2272 400 R0
SYMATTR InstName U1
SYMBOL res 2080 384 R270
WINDOW 0 32 56 VTop 2
WINDOW 3 0 56 VBottom 2
SYMATTR InstName R7
SYMATTR Value 100k
SYMBOL cap 2256 240 R270
WINDOW 0 32 32 VTop 2
WINDOW 3 0 32 VBottom 2
SYMATTR InstName C5
SYMATTR Value 1n
SYMATTR SpiceLine IC=0
SYMBOL voltage 1856 512 R0
WINDOW 0 34 37 Left 2
WINDOW 3 34 66 Left 2
WINDOW 123 34 94 Left 2
WINDOW 39 0 0 Left 2
SYMATTR InstName V1
SYMATTR Value 0
SYMATTR Value2 AC 100m
SYMBOL voltage 2704 512 R0
WINDOW 0 34 37 Left 2
WINDOW 3 34 66 Left 2
WINDOW 123 34 116 Left 2
WINDOW 39 0 0 Left 2
SYMATTR InstName V2
SYMATTR Value -15V
SYMBOL res 1936 448 R270
WINDOW 0 32 56 VTop 2
WINDOW 3 0 56 VBottom 2
SYMATTR InstName R1
SYMATTR Value 100k
SYMBOL res 2128 480 R0
SYMATTR InstName R2
SYMATTR Value 100k
SYMBOL cap 2064 512 R0
SYMATTR InstName C1
SYMATTR Value 1n
SYMATTR SpiceLine IC=0
SYMBOL res 2240 128 R270
WINDOW 0 32 56 VTop 2
WINDOW 3 0 56 VBottom 2
SYMATTR InstName R3
SYMATTR Value 100k
TEXT 1848 208 Left 2 !;tran 100m
TEXT 1848 176 Left 2 !.ac oct 1000 1 10Meg
