Version 4
SHEET 1 880 680
WIRE -1744 -1248 -2032 -1248
WIRE -1472 -1248 -1744 -1248
WIRE -1200 -1248 -1472 -1248
WIRE -928 -1248 -1200 -1248
WIRE -656 -1248 -928 -1248
WIRE -384 -1248 -656 -1248
WIRE -240 -1248 -384 -1248
WIRE -2032 -1216 -2032 -1248
WIRE -1744 -1216 -1744 -1248
WIRE -1472 -1216 -1472 -1248
WIRE -1200 -1216 -1200 -1248
WIRE -928 -1216 -928 -1248
WIRE -656 -1216 -656 -1248
WIRE -384 -1216 -384 -1248
WIRE -2032 -1104 -2032 -1136
WIRE -2032 -1104 -2112 -1104
WIRE -1952 -1104 -2032 -1104
WIRE -1744 -1104 -1744 -1136
WIRE -1744 -1104 -1824 -1104
WIRE -1664 -1104 -1744 -1104
WIRE -1472 -1104 -1472 -1136
WIRE -1472 -1104 -1552 -1104
WIRE -1392 -1104 -1472 -1104
WIRE -1200 -1104 -1200 -1136
WIRE -1200 -1104 -1280 -1104
WIRE -1120 -1104 -1200 -1104
WIRE -928 -1104 -928 -1136
WIRE -928 -1104 -1008 -1104
WIRE -848 -1104 -928 -1104
WIRE -656 -1104 -656 -1136
WIRE -656 -1104 -736 -1104
WIRE -576 -1104 -656 -1104
WIRE -384 -1104 -384 -1136
WIRE -384 -1104 -464 -1104
WIRE -304 -1104 -384 -1104
WIRE -2112 -1088 -2112 -1104
WIRE -1824 -1088 -1824 -1104
WIRE -1552 -1088 -1552 -1104
WIRE -1280 -1088 -1280 -1104
WIRE -1008 -1088 -1008 -1104
WIRE -736 -1088 -736 -1104
WIRE -464 -1088 -464 -1104
WIRE -2032 -1072 -2032 -1104
WIRE -1952 -1072 -1952 -1104
WIRE -1744 -1072 -1744 -1104
WIRE -1664 -1072 -1664 -1104
WIRE -1472 -1072 -1472 -1104
WIRE -1392 -1072 -1392 -1104
WIRE -1200 -1072 -1200 -1104
WIRE -1120 -1072 -1120 -1104
WIRE -928 -1072 -928 -1104
WIRE -848 -1072 -848 -1104
WIRE -656 -1072 -656 -1104
WIRE -576 -1072 -576 -1104
WIRE -384 -1072 -384 -1104
WIRE -304 -1072 -304 -1104
WIRE -2112 -976 -2112 -1008
WIRE -2032 -976 -2032 -1008
WIRE -2032 -976 -2112 -976
WIRE -1952 -976 -1952 -992
WIRE -1952 -976 -2032 -976
WIRE -1824 -976 -1824 -1008
WIRE -1824 -976 -1872 -976
WIRE -1744 -976 -1744 -1008
WIRE -1744 -976 -1824 -976
WIRE -1664 -976 -1664 -992
WIRE -1664 -976 -1744 -976
WIRE -1552 -976 -1552 -1008
WIRE -1552 -976 -1584 -976
WIRE -1472 -976 -1472 -1008
WIRE -1472 -976 -1552 -976
WIRE -1392 -976 -1392 -992
WIRE -1392 -976 -1472 -976
WIRE -1280 -976 -1280 -1008
WIRE -1280 -976 -1312 -976
WIRE -1200 -976 -1200 -1008
WIRE -1200 -976 -1280 -976
WIRE -1120 -976 -1120 -992
WIRE -1120 -976 -1200 -976
WIRE -1008 -976 -1008 -1008
WIRE -1008 -976 -1040 -976
WIRE -928 -976 -928 -1008
WIRE -928 -976 -1008 -976
WIRE -848 -976 -848 -992
WIRE -848 -976 -928 -976
WIRE -736 -976 -736 -1008
WIRE -736 -976 -768 -976
WIRE -656 -976 -656 -1008
WIRE -656 -976 -736 -976
WIRE -576 -976 -576 -992
WIRE -576 -976 -656 -976
WIRE -464 -976 -464 -1008
WIRE -464 -976 -496 -976
WIRE -384 -976 -384 -1008
WIRE -384 -976 -464 -976
WIRE -304 -976 -304 -992
WIRE -304 -976 -384 -976
WIRE -2032 -944 -2032 -976
WIRE -1744 -944 -1744 -976
WIRE -1472 -944 -1472 -976
WIRE -1200 -944 -1200 -976
WIRE -928 -944 -928 -976
WIRE -656 -944 -656 -976
WIRE -384 -944 -384 -976
WIRE -2032 -832 -2032 -864
WIRE -2032 -832 -2112 -832
WIRE -1952 -832 -2032 -832
WIRE -1744 -832 -1744 -864
WIRE -1744 -832 -1824 -832
WIRE -1664 -832 -1744 -832
WIRE -1472 -832 -1472 -864
WIRE -1472 -832 -1552 -832
WIRE -1392 -832 -1472 -832
WIRE -1200 -832 -1200 -864
WIRE -1200 -832 -1280 -832
WIRE -1120 -832 -1200 -832
WIRE -928 -832 -928 -864
WIRE -928 -832 -1008 -832
WIRE -848 -832 -928 -832
WIRE -656 -832 -656 -864
WIRE -656 -832 -736 -832
WIRE -576 -832 -656 -832
WIRE -384 -832 -384 -864
WIRE -384 -832 -464 -832
WIRE -304 -832 -384 -832
WIRE -2112 -816 -2112 -832
WIRE -1824 -816 -1824 -832
WIRE -1552 -816 -1552 -832
WIRE -1280 -816 -1280 -832
WIRE -1008 -816 -1008 -832
WIRE -736 -816 -736 -832
WIRE -464 -816 -464 -832
WIRE -2032 -800 -2032 -832
WIRE -1952 -800 -1952 -832
WIRE -1744 -800 -1744 -832
WIRE -1664 -800 -1664 -832
WIRE -1472 -800 -1472 -832
WIRE -1392 -800 -1392 -832
WIRE -1200 -800 -1200 -832
WIRE -1120 -800 -1120 -832
WIRE -928 -800 -928 -832
WIRE -848 -800 -848 -832
WIRE -656 -800 -656 -832
WIRE -576 -800 -576 -832
WIRE -384 -800 -384 -832
WIRE -304 -800 -304 -832
WIRE -2112 -704 -2112 -736
WIRE -2032 -704 -2032 -736
WIRE -2032 -704 -2112 -704
WIRE -1952 -704 -1952 -720
WIRE -1952 -704 -2032 -704
WIRE -1824 -704 -1824 -736
WIRE -1824 -704 -1872 -704
WIRE -1744 -704 -1744 -736
WIRE -1744 -704 -1824 -704
WIRE -1664 -704 -1664 -720
WIRE -1664 -704 -1744 -704
WIRE -1552 -704 -1552 -736
WIRE -1552 -704 -1584 -704
WIRE -1472 -704 -1472 -736
WIRE -1472 -704 -1552 -704
WIRE -1392 -704 -1392 -720
WIRE -1392 -704 -1472 -704
WIRE -1280 -704 -1280 -736
WIRE -1280 -704 -1312 -704
WIRE -1200 -704 -1200 -736
WIRE -1200 -704 -1280 -704
WIRE -1120 -704 -1120 -720
WIRE -1120 -704 -1200 -704
WIRE -1008 -704 -1008 -736
WIRE -1008 -704 -1040 -704
WIRE -928 -704 -928 -736
WIRE -928 -704 -1008 -704
WIRE -848 -704 -848 -720
WIRE -848 -704 -928 -704
WIRE -736 -704 -736 -736
WIRE -736 -704 -768 -704
WIRE -656 -704 -656 -736
WIRE -656 -704 -736 -704
WIRE -576 -704 -576 -720
WIRE -576 -704 -656 -704
WIRE -464 -704 -464 -736
WIRE -464 -704 -496 -704
WIRE -384 -704 -384 -736
WIRE -384 -704 -464 -704
WIRE -304 -704 -304 -720
WIRE -304 -704 -384 -704
WIRE -2032 -672 -2032 -704
WIRE -1744 -672 -1744 -704
WIRE -1472 -672 -1472 -704
WIRE -1200 -672 -1200 -704
WIRE -928 -672 -928 -704
WIRE -656 -672 -656 -704
WIRE -384 -672 -384 -704
WIRE -2032 -560 -2032 -592
WIRE -2032 -560 -2112 -560
WIRE -1952 -560 -2032 -560
WIRE -1744 -560 -1744 -592
WIRE -1744 -560 -1824 -560
WIRE -1664 -560 -1744 -560
WIRE -1472 -560 -1472 -592
WIRE -1472 -560 -1552 -560
WIRE -1392 -560 -1472 -560
WIRE -1200 -560 -1200 -592
WIRE -1200 -560 -1280 -560
WIRE -1120 -560 -1200 -560
WIRE -928 -560 -928 -592
WIRE -928 -560 -1008 -560
WIRE -848 -560 -928 -560
WIRE -656 -560 -656 -592
WIRE -656 -560 -736 -560
WIRE -576 -560 -656 -560
WIRE -384 -560 -384 -592
WIRE -384 -560 -464 -560
WIRE -304 -560 -384 -560
WIRE -2112 -544 -2112 -560
WIRE -1824 -544 -1824 -560
WIRE -1552 -544 -1552 -560
WIRE -1280 -544 -1280 -560
WIRE -1008 -544 -1008 -560
WIRE -736 -544 -736 -560
WIRE -464 -544 -464 -560
WIRE -2032 -528 -2032 -560
WIRE -1952 -528 -1952 -560
WIRE -1744 -528 -1744 -560
WIRE -1664 -528 -1664 -560
WIRE -1472 -528 -1472 -560
WIRE -1392 -528 -1392 -560
WIRE -1200 -528 -1200 -560
WIRE -1120 -528 -1120 -560
WIRE -928 -528 -928 -560
WIRE -848 -528 -848 -560
WIRE -656 -528 -656 -560
WIRE -576 -528 -576 -560
WIRE -384 -528 -384 -560
WIRE -304 -528 -304 -560
WIRE -2112 -432 -2112 -464
WIRE -2032 -432 -2032 -464
WIRE -2032 -432 -2112 -432
WIRE -1952 -432 -1952 -448
WIRE -1952 -432 -2032 -432
WIRE -1824 -432 -1824 -464
WIRE -1824 -432 -1872 -432
WIRE -1744 -432 -1744 -464
WIRE -1744 -432 -1824 -432
WIRE -1664 -432 -1664 -448
WIRE -1664 -432 -1744 -432
WIRE -1552 -432 -1552 -464
WIRE -1552 -432 -1584 -432
WIRE -1472 -432 -1472 -464
WIRE -1472 -432 -1552 -432
WIRE -1392 -432 -1392 -448
WIRE -1392 -432 -1472 -432
WIRE -1280 -432 -1280 -464
WIRE -1280 -432 -1312 -432
WIRE -1200 -432 -1200 -464
WIRE -1200 -432 -1280 -432
WIRE -1120 -432 -1120 -448
WIRE -1120 -432 -1200 -432
WIRE -1008 -432 -1008 -464
WIRE -1008 -432 -1040 -432
WIRE -928 -432 -928 -464
WIRE -928 -432 -1008 -432
WIRE -848 -432 -848 -448
WIRE -848 -432 -928 -432
WIRE -736 -432 -736 -464
WIRE -736 -432 -768 -432
WIRE -656 -432 -656 -464
WIRE -656 -432 -736 -432
WIRE -576 -432 -576 -448
WIRE -576 -432 -656 -432
WIRE -464 -432 -464 -464
WIRE -464 -432 -496 -432
WIRE -384 -432 -384 -464
WIRE -384 -432 -464 -432
WIRE -304 -432 -304 -448
WIRE -304 -432 -384 -432
WIRE -2032 -400 -2032 -432
WIRE -1744 -400 -1744 -432
WIRE -1472 -400 -1472 -432
WIRE -1200 -400 -1200 -432
WIRE -928 -400 -928 -432
WIRE -656 -400 -656 -432
WIRE -384 -400 -384 -432
WIRE -2032 -288 -2032 -320
WIRE -2032 -288 -2112 -288
WIRE -1952 -288 -2032 -288
WIRE -1744 -288 -1744 -320
WIRE -1744 -288 -1824 -288
WIRE -1664 -288 -1744 -288
WIRE -1472 -288 -1472 -320
WIRE -1472 -288 -1552 -288
WIRE -1392 -288 -1472 -288
WIRE -1200 -288 -1200 -320
WIRE -1200 -288 -1280 -288
WIRE -1120 -288 -1200 -288
WIRE -928 -288 -928 -320
WIRE -928 -288 -1008 -288
WIRE -848 -288 -928 -288
WIRE -656 -288 -656 -320
WIRE -656 -288 -736 -288
WIRE -576 -288 -656 -288
WIRE -384 -288 -384 -320
WIRE -384 -288 -464 -288
WIRE -304 -288 -384 -288
WIRE -2112 -272 -2112 -288
WIRE -1824 -272 -1824 -288
WIRE -1552 -272 -1552 -288
WIRE -1280 -272 -1280 -288
WIRE -1008 -272 -1008 -288
WIRE -736 -272 -736 -288
WIRE -464 -272 -464 -288
WIRE -2032 -256 -2032 -288
WIRE -1952 -256 -1952 -288
WIRE -1744 -256 -1744 -288
WIRE -1664 -256 -1664 -288
WIRE -1472 -256 -1472 -288
WIRE -1392 -256 -1392 -288
WIRE -1200 -256 -1200 -288
WIRE -1120 -256 -1120 -288
WIRE -928 -256 -928 -288
WIRE -848 -256 -848 -288
WIRE -656 -256 -656 -288
WIRE -576 -256 -576 -288
WIRE -384 -256 -384 -288
WIRE -304 -256 -304 -288
WIRE -2112 -160 -2112 -192
WIRE -2032 -160 -2032 -192
WIRE -2032 -160 -2112 -160
WIRE -1952 -160 -1952 -176
WIRE -1952 -160 -2032 -160
WIRE -1824 -160 -1824 -192
WIRE -1824 -160 -1872 -160
WIRE -1744 -160 -1744 -192
WIRE -1744 -160 -1824 -160
WIRE -1664 -160 -1664 -176
WIRE -1664 -160 -1744 -160
WIRE -1552 -160 -1552 -192
WIRE -1552 -160 -1584 -160
WIRE -1472 -160 -1472 -192
WIRE -1472 -160 -1552 -160
WIRE -1392 -160 -1392 -176
WIRE -1392 -160 -1472 -160
WIRE -1280 -160 -1280 -192
WIRE -1280 -160 -1312 -160
WIRE -1200 -160 -1200 -192
WIRE -1200 -160 -1280 -160
WIRE -1120 -160 -1120 -176
WIRE -1120 -160 -1200 -160
WIRE -1008 -160 -1008 -192
WIRE -1008 -160 -1040 -160
WIRE -928 -160 -928 -192
WIRE -928 -160 -1008 -160
WIRE -848 -160 -848 -176
WIRE -848 -160 -928 -160
WIRE -736 -160 -736 -192
WIRE -736 -160 -768 -160
WIRE -656 -160 -656 -192
WIRE -656 -160 -736 -160
WIRE -576 -160 -576 -176
WIRE -576 -160 -656 -160
WIRE -464 -160 -464 -192
WIRE -464 -160 -496 -160
WIRE -384 -160 -384 -192
WIRE -384 -160 -464 -160
WIRE -304 -160 -304 -176
WIRE -304 -160 -384 -160
WIRE -2032 -128 -2032 -160
WIRE -1744 -128 -1744 -160
WIRE -1472 -128 -1472 -160
WIRE -1200 -128 -1200 -160
WIRE -928 -128 -928 -160
WIRE -656 -128 -656 -160
WIRE -384 -128 -384 -160
WIRE -2032 -16 -2032 -48
WIRE -2032 -16 -2112 -16
WIRE -1952 -16 -2032 -16
WIRE -1744 -16 -1744 -48
WIRE -1744 -16 -1824 -16
WIRE -1664 -16 -1744 -16
WIRE -1472 -16 -1472 -48
WIRE -1472 -16 -1552 -16
WIRE -1392 -16 -1472 -16
WIRE -1200 -16 -1200 -48
WIRE -1200 -16 -1280 -16
WIRE -1120 -16 -1200 -16
WIRE -928 -16 -928 -48
WIRE -928 -16 -1008 -16
WIRE -848 -16 -928 -16
WIRE -656 -16 -656 -48
WIRE -656 -16 -736 -16
WIRE -576 -16 -656 -16
WIRE -384 -16 -384 -48
WIRE -384 -16 -464 -16
WIRE -304 -16 -384 -16
WIRE -2112 0 -2112 -16
WIRE -1824 0 -1824 -16
WIRE -1552 0 -1552 -16
WIRE -1280 0 -1280 -16
WIRE -1008 0 -1008 -16
WIRE -736 0 -736 -16
WIRE -464 0 -464 -16
WIRE -2032 16 -2032 -16
WIRE -1952 16 -1952 -16
WIRE -1744 16 -1744 -16
WIRE -1664 16 -1664 -16
WIRE -1472 16 -1472 -16
WIRE -1392 16 -1392 -16
WIRE -1200 16 -1200 -16
WIRE -1120 16 -1120 -16
WIRE -928 16 -928 -16
WIRE -848 16 -848 -16
WIRE -656 16 -656 -16
WIRE -576 16 -576 -16
WIRE -384 16 -384 -16
WIRE -304 16 -304 -16
WIRE -2112 112 -2112 80
WIRE -2032 112 -2032 80
WIRE -2032 112 -2112 112
WIRE -1952 112 -1952 96
WIRE -1952 112 -2032 112
WIRE -1824 112 -1824 80
WIRE -1824 112 -1952 112
WIRE -1744 112 -1744 80
WIRE -1744 112 -1824 112
WIRE -1664 112 -1664 96
WIRE -1664 112 -1744 112
WIRE -1552 112 -1552 80
WIRE -1552 112 -1664 112
WIRE -1472 112 -1472 80
WIRE -1472 112 -1552 112
WIRE -1392 112 -1392 96
WIRE -1392 112 -1472 112
WIRE -1280 112 -1280 80
WIRE -1280 112 -1392 112
WIRE -1200 112 -1200 80
WIRE -1200 112 -1280 112
WIRE -1120 112 -1120 96
WIRE -1120 112 -1200 112
WIRE -1008 112 -1008 80
WIRE -1008 112 -1120 112
WIRE -928 112 -928 80
WIRE -928 112 -1008 112
WIRE -848 112 -848 96
WIRE -848 112 -928 112
WIRE -736 112 -736 80
WIRE -736 112 -848 112
WIRE -656 112 -656 80
WIRE -656 112 -736 112
WIRE -576 112 -576 96
WIRE -576 112 -656 112
WIRE -464 112 -464 80
WIRE -464 112 -576 112
WIRE -384 112 -384 80
WIRE -384 112 -464 112
WIRE -304 112 -304 96
WIRE -304 112 -384 112
WIRE -176 112 -304 112
FLAG -240 -1248 hot
FLAG -176 112 cold
SYMBOL current -464 80 R180
WINDOW 0 24 80 Left 2
WINDOW 3 -1 0 VRight 2
WINDOW 123 0 0 Left 2
WINDOW 39 0 0 Left 2
SYMATTR InstName I1
SYMATTR Value {SolarPanel_SC/7}
SYMBOL zener -400 16 R0
WINDOW 0 -16 20 VRight 2
WINDOW 3 52 99 VLeft 2
SYMATTR InstName D1
SYMATTR Value SolarArrayDiode
SYMATTR Description Diode
SYMATTR Type diode
SYMBOL res -320 0 R0
WINDOW 3 34 64 Left 2
SYMATTR Value 100k
SYMATTR InstName R1
SYMBOL res -400 -144 R0
WINDOW 3 30 57 Left 2
SYMATTR Value 0.01
SYMATTR InstName R2
SYMBOL current -464 -192 R180
WINDOW 0 24 80 Left 2
WINDOW 3 -2 -4 VRight 2
WINDOW 123 0 0 Left 2
WINDOW 39 0 0 Left 2
SYMATTR InstName I2
SYMATTR Value {SolarPanel_SC/7}
SYMBOL res -320 -272 R0
WINDOW 3 32 63 Left 2
SYMATTR Value 100k
SYMATTR InstName R3
SYMBOL res -400 -416 R0
WINDOW 3 36 60 Left 2
SYMATTR Value 0.01
SYMATTR InstName R4
SYMBOL current -464 -464 R180
WINDOW 0 24 80 Left 2
WINDOW 3 -1 -4 VRight 2
WINDOW 123 0 0 Left 2
WINDOW 39 0 0 Left 2
SYMATTR InstName I3
SYMATTR Value {SolarPanel_SC/7}
SYMBOL res -320 -544 R0
WINDOW 3 36 59 Left 2
SYMATTR Value 100k
SYMATTR InstName R5
SYMBOL res -400 -688 R0
WINDOW 0 38 23 Left 2
WINDOW 3 34 51 Left 2
SYMATTR InstName R6
SYMATTR Value 0.01
SYMBOL current -464 -736 R180
WINDOW 0 24 80 Left 2
WINDOW 3 1 -2 VRight 2
WINDOW 123 0 0 Left 2
WINDOW 39 0 0 Left 2
SYMATTR InstName I4
SYMATTR Value {SolarPanel_SC/7}
SYMBOL res -320 -816 R0
WINDOW 3 32 63 Left 2
SYMATTR Value 100k
SYMATTR InstName R7
SYMBOL res -400 -960 R0
WINDOW 3 34 54 Left 2
SYMATTR Value 0.01
SYMATTR InstName R8
SYMBOL current -464 -1008 R180
WINDOW 0 24 80 Left 2
WINDOW 3 -1 -5 VRight 2
WINDOW 123 0 0 Left 2
WINDOW 39 0 0 Left 2
SYMATTR InstName I5
SYMATTR Value {SolarPanel_SC/7}
SYMBOL res -320 -1088 R0
WINDOW 3 36 64 Left 2
SYMATTR Value 100k
SYMATTR InstName R9
SYMBOL res -400 -1232 R0
WINDOW 3 38 62 Left 2
SYMATTR Value 0.01
SYMATTR InstName R10
SYMBOL current -736 80 R180
WINDOW 0 24 80 Left 2
WINDOW 3 -1 -5 VRight 2
WINDOW 123 0 0 Left 2
WINDOW 39 0 0 Left 2
SYMATTR InstName I6
SYMATTR Value {SolarPanel_SC/7}
SYMBOL zener -672 16 R0
WINDOW 0 -16 20 VRight 2
WINDOW 3 52 99 VLeft 2
SYMATTR InstName D2
SYMATTR Value SolarArrayDiode
SYMATTR Description Diode
SYMATTR Type diode
SYMBOL res -592 0 R0
WINDOW 3 36 66 Left 2
SYMATTR Value 100k
SYMATTR InstName R11
SYMBOL res -672 -144 R0
WINDOW 3 34 58 Left 2
SYMATTR Value 0.01
SYMATTR InstName R12
SYMBOL current -736 -192 R180
WINDOW 0 24 80 Left 2
WINDOW 3 1 -2 VRight 2
WINDOW 123 0 0 Left 2
WINDOW 39 0 0 Left 2
SYMATTR InstName I7
SYMATTR Value {SolarPanel_SC/7}
SYMBOL res -592 -272 R0
WINDOW 3 36 60 Left 2
SYMATTR Value 100k
SYMATTR InstName R13
SYMBOL res -672 -416 R0
WINDOW 3 36 59 Left 2
SYMATTR Value 0.01
SYMATTR InstName R14
SYMBOL current -736 -464 R180
WINDOW 0 24 80 Left 2
WINDOW 3 -1 -8 VRight 2
WINDOW 123 0 0 Left 2
WINDOW 39 0 0 Left 2
SYMATTR InstName I8
SYMATTR Value {SolarPanel_SC/7}
SYMBOL res -592 -544 R0
WINDOW 3 40 57 Left 2
SYMATTR Value 100k
SYMATTR InstName R15
SYMBOL res -672 -688 R0
WINDOW 3 36 59 Left 2
SYMATTR Value 0.01
SYMATTR InstName R16
SYMBOL current -736 -736 R180
WINDOW 0 24 80 Left 2
WINDOW 3 -3 -2 VRight 2
WINDOW 123 0 0 Left 2
WINDOW 39 0 0 Left 2
SYMATTR InstName I9
SYMATTR Value {SolarPanel_SC/7}
SYMBOL res -592 -816 R0
WINDOW 3 40 58 Left 2
SYMATTR Value 100k
SYMATTR InstName R17
SYMBOL res -672 -960 R0
WINDOW 3 38 57 Left 2
SYMATTR Value 0.01
SYMATTR InstName R18
SYMBOL current -736 -1008 R180
WINDOW 0 24 80 Left 2
WINDOW 3 -1 2 VRight 2
WINDOW 123 0 0 Left 2
WINDOW 39 0 0 Left 2
SYMATTR InstName I10
SYMATTR Value {SolarPanel_SC/7}
SYMBOL res -592 -1088 R0
WINDOW 3 32 64 Left 2
SYMATTR Value 100k
SYMATTR InstName R19
SYMBOL res -672 -1232 R0
WINDOW 3 36 62 Left 2
SYMATTR Value 0.01
SYMATTR InstName R20
SYMBOL res -480 -992 R90
WINDOW 0 77 50 VBottom 2
WINDOW 3 32 56 VTop 2
SYMATTR InstName R21
SYMATTR Value 0.01
SYMBOL res -480 -720 R90
WINDOW 0 76 52 VBottom 2
WINDOW 3 32 56 VTop 2
SYMATTR InstName R22
SYMATTR Value 0.01
SYMBOL res -480 -448 R90
WINDOW 0 79 54 VBottom 2
WINDOW 3 32 56 VTop 2
SYMATTR InstName R23
SYMATTR Value 0.01
SYMBOL res -480 -176 R90
WINDOW 0 79 54 VBottom 2
WINDOW 3 32 56 VTop 2
SYMATTR InstName R24
SYMATTR Value 0.01
SYMBOL current -1008 80 R180
WINDOW 0 24 80 Left 2
WINDOW 3 1 -13 VRight 2
WINDOW 123 0 0 Left 2
WINDOW 39 0 0 Left 2
SYMATTR InstName I11
SYMATTR Value {SolarPanel_SC/7}
SYMBOL res -864 0 R0
WINDOW 3 36 62 Left 2
SYMATTR Value 100k
SYMATTR InstName R25
SYMBOL res -944 -144 R0
WINDOW 3 32 60 Left 2
SYMATTR Value 0.01
SYMATTR InstName R26
SYMBOL current -1008 -192 R180
WINDOW 0 24 80 Left 2
WINDOW 3 -3 -6 VRight 2
WINDOW 123 0 0 Left 2
WINDOW 39 0 0 Left 2
SYMATTR InstName I12
SYMATTR Value {SolarPanel_SC/7}
SYMBOL res -864 -272 R0
WINDOW 3 36 60 Left 2
SYMATTR Value 100k
SYMATTR InstName R27
SYMBOL res -944 -416 R0
WINDOW 3 34 57 Left 2
SYMATTR Value 0.01
SYMATTR InstName R28
SYMBOL current -1008 -464 R180
WINDOW 0 24 80 Left 2
WINDOW 3 2 -8 VRight 2
WINDOW 123 0 0 Left 2
WINDOW 39 0 0 Left 2
SYMATTR InstName I13
SYMATTR Value {SolarPanel_SC/7}
SYMBOL res -864 -544 R0
WINDOW 3 34 61 Left 2
SYMATTR Value 100k
SYMATTR InstName R29
SYMBOL res -944 -688 R0
WINDOW 3 34 59 Left 2
SYMATTR Value 0.01
SYMATTR InstName R30
SYMBOL current -1008 -736 R180
WINDOW 0 24 80 Left 2
WINDOW 3 -1 -12 VRight 2
WINDOW 123 0 0 Left 2
WINDOW 39 0 0 Left 2
SYMATTR InstName I14
SYMATTR Value {SolarPanel_SC/7}
SYMBOL res -864 -816 R0
WINDOW 3 34 56 Left 2
SYMATTR Value 100k
SYMATTR InstName R31
SYMBOL res -944 -960 R0
WINDOW 3 36 51 Left 2
SYMATTR Value 0.01
SYMATTR InstName R32
SYMBOL current -1008 -1008 R180
WINDOW 0 24 80 Left 2
WINDOW 3 -1 -11 VRight 2
WINDOW 123 0 0 Left 2
WINDOW 39 0 0 Left 2
SYMATTR InstName I15
SYMATTR Value {SolarPanel_SC/7}
SYMBOL res -864 -1088 R0
WINDOW 3 38 57 Left 2
SYMATTR Value 100k
SYMATTR InstName R33
SYMBOL res -944 -1232 R0
WINDOW 3 34 55 Left 2
SYMATTR Value 0.01
SYMATTR InstName R34
SYMBOL current -1280 80 R180
WINDOW 0 24 80 Left 2
WINDOW 3 -7 0 VRight 2
WINDOW 123 0 0 Left 2
WINDOW 39 0 0 Left 2
SYMATTR InstName I16
SYMATTR Value {SolarPanel_SC/7}
SYMBOL res -1136 0 R0
WINDOW 3 36 64 Left 2
SYMATTR Value 100k
SYMATTR InstName R35
SYMBOL res -1216 -144 R0
WINDOW 3 36 57 Left 2
SYMATTR Value 0.01
SYMATTR InstName R36
SYMBOL current -1280 -192 R180
WINDOW 0 24 80 Left 2
WINDOW 3 -1 -4 VRight 2
WINDOW 123 0 0 Left 2
WINDOW 39 0 0 Left 2
SYMATTR InstName I17
SYMATTR Value {SolarPanel_SC/7}
SYMBOL res -1136 -272 R0
WINDOW 3 36 58 Left 2
SYMATTR Value 100k
SYMATTR InstName R37
SYMBOL res -1216 -416 R0
WINDOW 3 32 60 Left 2
SYMATTR Value 0.01
SYMATTR InstName R38
SYMBOL current -1280 -464 R180
WINDOW 0 24 80 Left 2
WINDOW 3 -2 0 VRight 2
WINDOW 123 0 0 Left 2
WINDOW 39 0 0 Left 2
SYMATTR InstName I18
SYMATTR Value {SolarPanel_SC/7}
SYMBOL res -1136 -544 R0
WINDOW 3 36 59 Left 2
SYMATTR Value 100k
SYMATTR InstName R39
SYMBOL res -1216 -688 R0
WINDOW 3 38 59 Left 2
SYMATTR Value 0.01
SYMATTR InstName R40
SYMBOL current -1280 -736 R180
WINDOW 0 24 80 Left 2
WINDOW 3 -5 -10 VRight 2
WINDOW 123 0 0 Left 2
WINDOW 39 0 0 Left 2
SYMATTR InstName I19
SYMATTR Value {SolarPanel_SC/7}
SYMBOL res -1136 -816 R0
WINDOW 3 36 60 Left 2
SYMATTR Value 100k
SYMATTR InstName R41
SYMBOL res -1216 -960 R0
WINDOW 3 34 55 Left 2
SYMATTR Value 0.01
SYMATTR InstName R42
SYMBOL current -1280 -1008 R180
WINDOW 0 24 80 Left 2
WINDOW 3 -1 2 VRight 2
WINDOW 123 0 0 Left 2
WINDOW 39 0 0 Left 2
SYMATTR InstName I20
SYMATTR Value {SolarPanel_SC/7}
SYMBOL res -1136 -1088 R0
WINDOW 3 36 61 Left 2
SYMATTR Value 100k
SYMATTR InstName R43
SYMBOL res -1216 -1232 R0
WINDOW 3 36 61 Left 2
SYMATTR Value 0.01
SYMATTR InstName R44
SYMBOL res -1024 -992 R90
WINDOW 0 73 64 VBottom 2
WINDOW 3 32 56 VTop 2
SYMATTR InstName R45
SYMATTR Value 0.01
SYMBOL res -1024 -720 R90
WINDOW 0 77 52 VBottom 2
WINDOW 3 32 56 VTop 2
SYMATTR InstName R46
SYMATTR Value 0.01
SYMBOL res -1024 -448 R90
WINDOW 0 79 60 VBottom 2
WINDOW 3 32 56 VTop 2
SYMATTR InstName R47
SYMATTR Value 0.01
SYMBOL res -1024 -176 R90
WINDOW 0 80 56 VBottom 2
WINDOW 3 32 56 VTop 2
SYMATTR InstName R48
SYMATTR Value 0.01
SYMBOL res -752 -992 R90
WINDOW 0 82 58 VBottom 2
WINDOW 3 32 56 VTop 2
SYMATTR InstName R49
SYMATTR Value 0.01
SYMBOL res -752 -720 R90
WINDOW 0 74 58 VBottom 2
WINDOW 3 32 56 VTop 2
SYMATTR InstName R50
SYMATTR Value 0.01
SYMBOL res -752 -448 R90
WINDOW 0 80 54 VBottom 2
WINDOW 3 32 56 VTop 2
SYMATTR InstName R51
SYMATTR Value 0.01
SYMBOL res -752 -176 R90
WINDOW 0 81 54 VBottom 2
WINDOW 3 32 56 VTop 2
SYMATTR InstName R52
SYMATTR Value 0.01
SYMBOL current -1552 80 R180
WINDOW 0 24 80 Left 2
WINDOW 3 -3 6 VRight 2
WINDOW 123 0 0 Left 2
WINDOW 39 0 0 Left 2
SYMATTR InstName I21
SYMATTR Value {SolarPanel_SC/7}
SYMBOL res -1408 0 R0
WINDOW 3 36 58 Left 2
SYMATTR Value 100k
SYMATTR InstName R53
SYMBOL res -1488 -144 R0
WINDOW 3 34 55 Left 2
SYMATTR Value 0.01
SYMATTR InstName R54
SYMBOL current -1552 -192 R180
WINDOW 0 24 80 Left 2
WINDOW 3 1 0 VRight 2
WINDOW 123 0 0 Left 2
WINDOW 39 0 0 Left 2
SYMATTR InstName I22
SYMATTR Value {SolarPanel_SC/7}
SYMBOL res -1408 -272 R0
WINDOW 3 38 60 Left 2
SYMATTR Value 100k
SYMATTR InstName R55
SYMBOL res -1488 -416 R0
WINDOW 3 36 58 Left 2
SYMATTR Value 0.01
SYMATTR InstName R56
SYMBOL current -1552 -464 R180
WINDOW 0 24 80 Left 2
WINDOW 3 -1 -9 VRight 2
WINDOW 123 0 0 Left 2
WINDOW 39 0 0 Left 2
SYMATTR InstName I23
SYMATTR Value {SolarPanel_SC/7}
SYMBOL res -1408 -544 R0
WINDOW 3 38 61 Left 2
SYMATTR Value 100k
SYMATTR InstName R57
SYMBOL res -1488 -688 R0
WINDOW 3 40 59 Left 2
SYMATTR Value 0.01
SYMATTR InstName R58
SYMBOL current -1552 -736 R180
WINDOW 0 24 80 Left 2
WINDOW 3 -1 -6 VRight 2
WINDOW 123 0 0 Left 2
WINDOW 39 0 0 Left 2
SYMATTR InstName I24
SYMATTR Value {SolarPanel_SC/7}
SYMBOL res -1408 -816 R0
WINDOW 0 34 33 Left 2
WINDOW 3 36 53 Left 2
SYMATTR InstName R59
SYMATTR Value 100k
SYMBOL res -1488 -960 R0
WINDOW 3 36 57 Left 2
SYMATTR Value 0.01
SYMATTR InstName R60
SYMBOL current -1552 -1008 R180
WINDOW 0 24 80 Left 2
WINDOW 3 -1 -2 VRight 2
WINDOW 123 0 0 Left 2
WINDOW 39 0 0 Left 2
SYMATTR InstName I25
SYMATTR Value {SolarPanel_SC/7}
SYMBOL res -1408 -1088 R0
WINDOW 3 34 60 Left 2
SYMATTR Value 100k
SYMATTR InstName R61
SYMBOL res -1488 -1232 R0
WINDOW 3 36 58 Left 2
SYMATTR Value 0.01
SYMATTR InstName R62
SYMBOL current -1824 80 R180
WINDOW 0 17 78 Left 2
WINDOW 3 -1 18 VRight 2
WINDOW 123 0 0 Left 2
WINDOW 39 0 0 Left 2
SYMATTR InstName I26
SYMATTR Value {SolarPanel_SC/7}
SYMBOL res -1680 0 R0
WINDOW 3 33 64 Left 2
SYMATTR Value 100k
SYMATTR InstName R63
SYMBOL res -1760 -144 R0
WINDOW 3 34 60 Left 2
SYMATTR Value 0.01
SYMATTR InstName R64
SYMBOL current -1824 -192 R180
WINDOW 0 18 81 Left 2
WINDOW 3 -1 13 VRight 2
WINDOW 123 0 0 Left 2
WINDOW 39 0 0 Left 2
SYMATTR InstName I27
SYMATTR Value {SolarPanel_SC/7}
SYMBOL res -1680 -272 R0
WINDOW 3 31 57 Left 2
SYMATTR Value 100k
SYMATTR InstName R65
SYMBOL res -1760 -416 R0
WINDOW 3 36 60 Left 2
SYMATTR Value 0.01
SYMATTR InstName R66
SYMBOL current -1824 -464 R180
WINDOW 0 24 80 Left 2
WINDOW 3 1 9 VRight 2
WINDOW 123 0 0 Left 2
WINDOW 39 0 0 Left 2
SYMATTR InstName I28
SYMATTR Value {SolarPanel_SC/7}
SYMBOL res -1680 -544 R0
WINDOW 3 36 61 Left 2
SYMATTR Value 100k
SYMATTR InstName R67
SYMBOL res -1760 -688 R0
WINDOW 3 36 59 Left 2
SYMATTR Value 0.01
SYMATTR InstName R68
SYMBOL current -1824 -736 R180
WINDOW 0 16 80 Left 2
WINDOW 3 -1 -8 VRight 2
WINDOW 123 0 0 Left 2
WINDOW 39 0 0 Left 2
SYMATTR InstName I29
SYMATTR Value {SolarPanel_SC/7}
SYMBOL res -1680 -816 R0
WINDOW 3 36 62 Left 2
SYMATTR Value 100k
SYMATTR InstName R69
SYMBOL res -1760 -960 R0
WINDOW 3 34 62 Left 2
SYMATTR Value 0.01
SYMATTR InstName R70
SYMBOL current -1824 -1008 R180
WINDOW 0 24 80 Left 2
WINDOW 3 -3 12 VRight 2
WINDOW 123 0 0 Left 2
WINDOW 39 0 0 Left 2
SYMATTR InstName I30
SYMATTR Value {SolarPanel_SC/7}
SYMBOL res -1680 -1088 R0
WINDOW 3 34 59 Left 2
SYMATTR Value 100k
SYMATTR InstName R71
SYMBOL res -1760 -1232 R0
WINDOW 3 34 57 Left 2
SYMATTR Value 0.01
SYMATTR InstName R72
SYMBOL res -1568 -992 R90
WINDOW 0 79 58 VBottom 2
WINDOW 3 32 56 VTop 2
SYMATTR InstName R73
SYMATTR Value 0.01
SYMBOL res -1568 -720 R90
WINDOW 0 72 56 VBottom 2
WINDOW 3 32 56 VTop 2
SYMATTR InstName R74
SYMATTR Value 0.01
SYMBOL res -1568 -448 R90
WINDOW 0 79 59 VBottom 2
WINDOW 3 32 56 VTop 2
SYMATTR InstName R75
SYMATTR Value 0.01
SYMBOL res -1568 -176 R90
WINDOW 0 85 61 VBottom 2
WINDOW 3 32 56 VTop 2
SYMATTR InstName R76
SYMATTR Value 0.01
SYMBOL res -1296 -992 R90
WINDOW 0 85 54 VBottom 2
WINDOW 3 32 56 VTop 2
SYMATTR InstName R77
SYMATTR Value 0.01
SYMBOL res -1296 -720 R90
WINDOW 0 78 54 VBottom 2
WINDOW 3 32 56 VTop 2
SYMATTR InstName R78
SYMATTR Value 0.01
SYMBOL res -1296 -448 R90
WINDOW 0 82 58 VBottom 2
WINDOW 3 32 56 VTop 2
SYMATTR InstName R79
SYMATTR Value 0.01
SYMBOL res -1296 -176 R90
WINDOW 0 76 58 VBottom 2
WINDOW 3 32 56 VTop 2
SYMATTR InstName R80
SYMATTR Value 0.01
SYMBOL current -2112 80 R180
WINDOW 0 24 80 Left 2
WINDOW 3 -3 -6 VRight 2
WINDOW 123 0 0 Left 2
WINDOW 39 0 0 Left 2
SYMATTR InstName I31
SYMATTR Value {SolarPanel_SC/7}
SYMBOL res -1968 0 R0
WINDOW 0 36 52 Left 2
SYMATTR InstName R81
SYMATTR Value 100k
SYMBOL res -2048 -144 R0
WINDOW 0 32 25 Left 2
WINDOW 3 32 53 Left 2
SYMATTR InstName R82
SYMATTR Value 0.01
SYMBOL current -2112 -192 R180
WINDOW 0 24 80 Left 2
WINDOW 3 1 2 VRight 2
WINDOW 123 0 0 Left 2
WINDOW 39 0 0 Left 2
SYMATTR InstName I32
SYMATTR Value {SolarPanel_SC/7}
SYMBOL res -1968 -272 R0
WINDOW 0 32 34 Left 2
WINDOW 3 32 55 Left 2
SYMATTR InstName R83
SYMATTR Value 100k
SYMBOL res -2048 -416 R0
WINDOW 0 34 28 Left 2
WINDOW 3 34 45 Left 2
SYMATTR InstName R84
SYMATTR Value 0.01
SYMBOL current -2112 -464 R180
WINDOW 0 24 80 Left 2
WINDOW 3 0 3 VRight 2
WINDOW 123 0 0 Left 2
WINDOW 39 0 0 Left 2
SYMATTR InstName I33
SYMATTR Value {SolarPanel_SC/7}
SYMBOL res -1968 -544 R0
WINDOW 3 35 59 Left 2
SYMATTR Value 100k
SYMATTR InstName R85
SYMBOL res -2048 -688 R0
WINDOW 0 32 30 Left 2
WINDOW 3 32 53 Left 2
SYMATTR InstName R86
SYMATTR Value 0.01
SYMBOL current -2112 -736 R180
WINDOW 0 24 80 Left 2
WINDOW 3 -1 8 VRight 2
WINDOW 123 0 0 Left 2
WINDOW 39 0 0 Left 2
SYMATTR InstName I34
SYMATTR Value {SolarPanel_SC/7}
SYMBOL res -1968 -816 R0
WINDOW 0 38 28 Left 2
WINDOW 3 32 45 Left 2
SYMATTR InstName R87
SYMATTR Value 100k
SYMBOL res -2048 -960 R0
WINDOW 0 38 35 Left 2
WINDOW 3 35 53 Left 2
SYMATTR InstName R88
SYMATTR Value 0.01
SYMBOL current -2112 -1008 R180
WINDOW 0 24 80 Left 2
WINDOW 3 1 4 VRight 2
WINDOW 123 0 0 Left 2
WINDOW 39 0 0 Left 2
SYMATTR InstName I35
SYMATTR Value {SolarPanel_SC/7}
SYMBOL res -1968 -1088 R0
WINDOW 3 34 59 Left 2
SYMATTR Value 100k
SYMATTR InstName R89
SYMBOL res -2048 -1232 R0
WINDOW 0 36 27 Left 2
WINDOW 3 36 51 Left 2
SYMATTR InstName R90
SYMATTR Value 0.01
SYMBOL res -1856 -992 R90
WINDOW 0 79 56 VBottom 2
WINDOW 3 32 56 VTop 2
SYMATTR InstName R91
SYMATTR Value 0.01
SYMBOL res -1856 -720 R90
WINDOW 0 85 56 VBottom 2
WINDOW 3 32 56 VTop 2
SYMATTR InstName R92
SYMATTR Value 0.01
SYMBOL res -1856 -448 R90
WINDOW 0 82 56 VBottom 2
WINDOW 3 32 56 VTop 2
SYMATTR InstName R93
SYMATTR Value 0.01
SYMBOL res -1856 -176 R90
WINDOW 0 81 59 VBottom 2
WINDOW 3 32 56 VTop 2
SYMATTR InstName R94
SYMATTR Value 0.01
SYMBOL zener -944 16 R0
WINDOW 0 -16 20 VRight 2
WINDOW 3 52 99 VLeft 2
SYMATTR InstName D3
SYMATTR Value SolarArrayDiode
SYMATTR Description Diode
SYMATTR Type diode
SYMBOL zener -1216 16 R0
WINDOW 0 -16 20 VRight 2
WINDOW 3 52 99 VLeft 2
SYMATTR InstName D4
SYMATTR Value SolarArrayDiode
SYMATTR Description Diode
SYMATTR Type diode
SYMBOL zener -1488 16 R0
WINDOW 0 -16 20 VRight 2
WINDOW 3 52 99 VLeft 2
SYMATTR InstName D5
SYMATTR Value SolarArrayDiode
SYMATTR Description Diode
SYMATTR Type diode
SYMBOL zener -1760 16 R0
WINDOW 0 -16 20 VRight 2
WINDOW 3 52 99 VLeft 2
SYMATTR InstName D6
SYMATTR Value SolarArrayDiode
SYMATTR Description Diode
SYMATTR Type diode
SYMBOL zener -2048 16 R0
WINDOW 0 -16 20 VRight 2
WINDOW 3 52 99 VLeft 2
SYMATTR InstName D7
SYMATTR Value SolarArrayDiode
SYMATTR Description Diode
SYMATTR Type diode
SYMBOL zener -2048 -256 R0
WINDOW 0 -16 20 VRight 2
WINDOW 3 52 99 VLeft 2
SYMATTR InstName D8
SYMATTR Value SolarArrayDiode
SYMATTR Description Diode
SYMATTR Type diode
SYMBOL zener -1760 -256 R0
WINDOW 0 -16 20 VRight 2
WINDOW 3 52 99 VLeft 2
SYMATTR InstName D9
SYMATTR Value SolarArrayDiode
SYMATTR Description Diode
SYMATTR Type diode
SYMBOL zener -1488 -256 R0
WINDOW 0 -16 20 VRight 2
WINDOW 3 52 99 VLeft 2
SYMATTR InstName D10
SYMATTR Value SolarArrayDiode
SYMATTR Description Diode
SYMATTR Type diode
SYMBOL zener -1216 -256 R0
WINDOW 0 -16 20 VRight 2
WINDOW 3 52 99 VLeft 2
SYMATTR InstName D11
SYMATTR Value SolarArrayDiode
SYMATTR Description Diode
SYMATTR Type diode
SYMBOL zener -944 -256 R0
WINDOW 0 -16 20 VRight 2
WINDOW 3 52 99 VLeft 2
SYMATTR InstName D12
SYMATTR Value SolarArrayDiode
SYMATTR Description Diode
SYMATTR Type diode
SYMBOL zener -672 -256 R0
WINDOW 0 -16 20 VRight 2
WINDOW 3 52 99 VLeft 2
SYMATTR InstName D13
SYMATTR Value SolarArrayDiode
SYMATTR Description Diode
SYMATTR Type diode
SYMBOL zener -400 -256 R0
WINDOW 0 -16 20 VRight 2
WINDOW 3 52 99 VLeft 2
SYMATTR InstName D14
SYMATTR Value SolarArrayDiode
SYMATTR Description Diode
SYMATTR Type diode
SYMBOL zener -400 -528 R0
WINDOW 0 -16 20 VRight 2
WINDOW 3 52 99 VLeft 2
SYMATTR InstName D15
SYMATTR Value SolarArrayDiode
SYMATTR Description Diode
SYMATTR Type diode
SYMBOL zener -672 -528 R0
WINDOW 0 -16 20 VRight 2
WINDOW 3 52 99 VLeft 2
SYMATTR InstName D16
SYMATTR Value SolarArrayDiode
SYMATTR Description Diode
SYMATTR Type diode
SYMBOL zener -944 -528 R0
WINDOW 0 -16 20 VRight 2
WINDOW 3 52 99 VLeft 2
SYMATTR InstName D17
SYMATTR Value SolarArrayDiode
SYMATTR Description Diode
SYMATTR Type diode
SYMBOL zener -1216 -528 R0
WINDOW 0 -16 20 VRight 2
WINDOW 3 52 99 VLeft 2
SYMATTR InstName D18
SYMATTR Value SolarArrayDiode
SYMATTR Description Diode
SYMATTR Type diode