Version 4
SHEET 1 2604 2436
WIRE 1408 64 1408 16
WIRE 320 96 176 96
WIRE 784 160 736 160
WIRE 912 160 848 160
WIRE 960 176 960 144
WIRE 400 192 176 192
WIRE 176 224 176 192
WIRE 736 272 736 160
WIRE 784 272 736 272
WIRE 912 272 912 160
WIRE 912 272 864 272
WIRE 832 384 832 352
WIRE 912 400 912 272
WIRE 912 400 864 400
WIRE 960 400 960 256
WIRE 960 400 912 400
WIRE 592 416 544 416
WIRE 656 416 592 416
WIRE 736 416 736 272
WIRE 800 416 736 416
WIRE 1024 432 864 432
WIRE 400 544 400 192
WIRE 1104 544 1104 432
WIRE 1104 544 400 544
WIRE 2208 2112 2048 2112
WIRE 2336 2128 2272 2128
WIRE 2480 2128 2416 2128
WIRE 2528 2128 2480 2128
WIRE 2160 2144 2112 2144
WIRE 2208 2144 2160 2144
WIRE 2240 2192 2240 2160
WIRE 2160 2272 2160 2144
WIRE 2208 2272 2160 2272
WIRE 2336 2272 2336 2128
WIRE 2336 2272 2288 2272
WIRE 2112 2288 2112 2144
WIRE 2160 2384 2160 2272
WIRE 2224 2384 2160 2384
WIRE 2336 2384 2336 2272
WIRE 2336 2384 2288 2384
WIRE 2112 2416 2112 2368
FLAG 176 304 0
FLAG 320 176 0
FLAG 2240 2096 0
FLAG 2240 2192 COM
FLAG 2112 2416 0
FLAG 2480 2064 0
FLAG 1968 2112 PT1000_1
FLAG 2528 2128 OUT
FLAG 832 448 0
FLAG 832 352 COM
FLAG 960 144 0
FLAG 592 480 0
FLAG 544 416 OUT
FLAG 1408 144 0
FLAG 1408 16 COM
SYMBOL voltage 320 80 R0
WINDOW 123 0 0 Left 2
WINDOW 39 0 0 Left 2
SYMATTR InstName V1
SYMATTR Value 4.5
SYMBOL SOLAR 176 144 R0
SYMATTR InstName X2
SYMBOL res 160 208 R0
SYMATTR InstName R1
SYMATTR Value 40
SYMBOL Opamps\\LTC6079 2240 2128 M180
SYMATTR InstName U1
SYMBOL res 2128 2384 R180
WINDOW 0 36 76 Left 2
WINDOW 3 36 40 Left 2
SYMATTR InstName R2
SYMATTR Value 1k
SYMBOL res 2192 2288 R270
WINDOW 0 32 56 VTop 2
WINDOW 3 0 56 VBottom 2
SYMATTR InstName R3
SYMATTR Value 26.1k
SYMBOL cap 2496 2128 R180
WINDOW 0 24 56 Left 2
WINDOW 3 24 8 Left 2
SYMATTR InstName C1
SYMATTR Value 10n
SYMBOL res 2320 2144 R270
WINDOW 0 32 56 VTop 2
WINDOW 3 0 56 VBottom 2
SYMATTR InstName R4
SYMATTR Value 1k
SYMBOL res 1952 2128 R270
WINDOW 0 32 56 VTop 2
WINDOW 3 0 56 VBottom 2
SYMATTR InstName R_analog_switch_1
SYMATTR Value 3
SYMBOL cap 2224 2400 R270
WINDOW 0 32 32 VTop 2
WINDOW 3 0 32 VBottom 2
SYMATTR InstName C2
SYMATTR Value 10n
SYMBOL Opamps\\LTC6079 832 416 M0
SYMATTR InstName U2
SYMBOL res 944 160 R0
SYMATTR InstName R5
SYMATTR Value 26.1k
SYMBOL res 880 256 R90
WINDOW 0 0 56 VBottom 2
WINDOW 3 32 56 VTop 2
SYMATTR InstName R6
SYMATTR Value 10k
SYMBOL cap 576 416 R0
WINDOW 0 32 33 Left 2
SYMATTR InstName C3
SYMATTR Value 10n
SYMBOL res 752 400 R90
WINDOW 0 0 56 VBottom 2
WINDOW 3 32 56 VTop 2
SYMATTR InstName R7
SYMATTR Value 1k
SYMBOL res 1120 416 R90
WINDOW 0 -5 -3 VBottom 2
WINDOW 3 32 56 VTop 2
SYMATTR InstName R_analog_switch_2
SYMATTR Value 3
SYMBOL cap 848 144 R90
WINDOW 0 0 32 VBottom 2
WINDOW 3 32 32 VTop 2
SYMATTR InstName C4
SYMATTR Value 10n
SYMBOL voltage 1408 48 R0
WINDOW 123 0 0 Left 2
WINDOW 39 24 44 Left 2
SYMATTR SpiceLine Rser=0.1
SYMATTR InstName V2
SYMATTR Value 5
TEXT 32 128 Right 2 !.step param current 0 70m 10m
TEXT -200 168 Left 2 !.step temp -50 100 30
TEXT -232 328 Left 2 !.tran 100m
