Version 4
SHEET 1 1252 1040
WIRE -256 -1104 -336 -1104
WIRE -144 -1104 -192 -1104
WIRE -880 -1024 -912 -1024
WIRE -1296 -1008 -1296 -1072
WIRE -1264 -1008 -1296 -1008
WIRE -1152 -1008 -1184 -1008
WIRE -1104 -1008 -1152 -1008
WIRE -1008 -1008 -1024 -1008
WIRE -976 -1008 -1008 -1008
WIRE -336 -1008 -336 -1104
WIRE -272 -1008 -336 -1008
WIRE -144 -1008 -144 -1104
WIRE -144 -1008 -192 -1008
WIRE -1152 -992 -1152 -1008
WIRE -864 -992 -912 -992
WIRE -1008 -896 -1008 -1008
WIRE -976 -896 -1008 -896
WIRE -864 -896 -864 -992
WIRE -864 -896 -896 -896
WIRE -240 -880 -240 -912
WIRE -144 -864 -144 -1008
WIRE -144 -864 -208 -864
WIRE -80 -864 -144 -864
WIRE 64 -864 0 -864
WIRE -336 -848 -336 -1008
WIRE -336 -848 -416 -848
WIRE -272 -848 -336 -848
WIRE -32 -832 -208 -832
WIRE 64 -832 64 -864
WIRE 368 -784 368 -832
WIRE -944 -752 -1248 -752
WIRE -416 -752 -416 -848
WIRE -272 -720 -320 -720
WIRE -176 -720 -192 -720
WIRE -1248 -656 -1248 -752
WIRE -1136 -656 -1248 -656
WIRE -944 -656 -944 -752
WIRE -912 -656 -944 -656
WIRE -240 -624 -240 -656
WIRE -320 -608 -320 -720
WIRE -272 -608 -320 -608
WIRE -176 -592 -176 -720
WIRE -176 -592 -208 -592
WIRE -128 -592 -176 -592
WIRE -32 -592 -32 -832
WIRE -32 -592 -48 -592
WIRE -16 -592 -32 -592
WIRE 128 -592 64 -592
WIRE -416 -576 -416 -672
WIRE -272 -576 -416 -576
WIRE -1072 -560 -1072 -608
WIRE -848 -560 -848 -608
WIRE -848 -560 -1072 -560
WIRE -416 -528 -416 -576
FLAG 368 -704 0
FLAG 368 -832 COM
FLAG -240 -560 0
FLAG -240 -816 0
FLAG -240 -656 COM
FLAG -240 -912 COM
FLAG 64 -832 0
FLAG 128 -512 0
FLAG -1248 -576 0
FLAG -1296 -928 0
FLAG -1296 -1072 OUT
FLAG -944 -976 COM
FLAG -944 -1040 0
FLAG -1152 -928 0
FLAG -416 -528 RTD_CS
FLAG -1120 -608 0
FLAG -1072 -480 0
FLAG -1056 -656 RTD_CS
FLAG -896 -608 0
FLAG -832 -656 RTD_VS
FLAG -880 -1024 RTD_VS
FLAG -784 -992 0
SYMBOL voltage 368 -800 R0
WINDOW 123 0 0 Left 2
WINDOW 39 24 44 Left 2
SYMATTR SpiceLine Rser=0.1
SYMATTR InstName V3
SYMATTR Value 5
SYMBOL Opamps\\LTC6079 -240 -592 R0
SYMATTR InstName U9
SYMBOL Opamps\\LTC6079 -240 -848 M0
SYMATTR InstName U10
SYMBOL res -432 -768 R0
WINDOW 0 -50 38 Left 2
WINDOW 3 -74 72 Left 2
SYMATTR InstName R19
SYMATTR Value 26.1k
SYMATTR SpiceLine tol=0.1
SYMBOL res -32 -608 R90
WINDOW 0 0 56 VBottom 2
WINDOW 3 32 56 VTop 2
SYMATTR InstName R20
SYMATTR Value 26.1k
SYMATTR SpiceLine tol=0.1
SYMBOL res 80 -608 R90
WINDOW 0 0 56 VBottom 2
WINDOW 3 32 56 VTop 2
SYMATTR InstName R21
SYMATTR Value 26.1k
SYMATTR SpiceLine tol=0.1
SYMBOL res 16 -880 R90
WINDOW 0 0 56 VBottom 2
WINDOW 3 32 56 VTop 2
SYMATTR InstName R22
SYMATTR Value 26.1k
SYMATTR SpiceLine tol=0.1
SYMBOL res -176 -1024 R90
WINDOW 0 0 56 VBottom 2
WINDOW 3 32 56 VTop 2
SYMATTR InstName R23
SYMATTR Value 26.1k
SYMATTR SpiceLine tol=0.1
SYMBOL voltage 128 -608 R0
WINDOW 123 0 0 Left 2
WINDOW 39 24 44 Left 2
SYMATTR SpiceLine Rser=0.1
SYMATTR InstName V1
SYMATTR Value 2.5
SYMBOL res -1312 -1024 R0
WINDOW 0 -44 67 Left 2
WINDOW 3 -67 38 Left 2
SYMATTR InstName R1
SYMATTR Value 1Meg
SYMBOL Opamps\\LTC6079 -944 -1008 R180
SYMATTR InstName U1
SYMBOL cap -1168 -992 R0
WINDOW 0 -36 20 Left 2
WINDOW 3 -50 48 Left 2
SYMATTR InstName C1
SYMATTR Value 100n
SYMBOL res -1008 -1024 R90
WINDOW 0 62 64 VBottom 2
WINDOW 3 62 77 VTop 2
SYMATTR InstName R_fil
SYMATTR Value 1k
SYMBOL sw -1152 -656 R270
SYMATTR InstName S1
SYMATTR Value ""
SYMATTR SpiceModel MUXOFF
SYMBOL voltage -1072 -576 R0
WINDOW 0 -32 56 VBottom 2
WINDOW 3 21 129 Top 2
WINDOW 123 0 0 Left 2
WINDOW 39 0 0 Left 2
SYMATTR InstName V2
SYMATTR Value PULSE(-1 1 0 1f 1f 2m 4m)
SYMBOL res -1232 -560 R180
WINDOW 0 36 76 Left 2
WINDOW 3 36 40 Left 2
SYMATTR InstName R2
SYMATTR Value 1k
SYMBOL res -880 -912 R90
WINDOW 0 0 56 VBottom 2
WINDOW 3 32 56 VTop 2
SYMATTR InstName R3
SYMATTR Value 26.1k
SYMATTR SpiceLine tol=0.1
SYMBOL res -768 -1008 R90
WINDOW 0 83 55 VBottom 2
WINDOW 3 32 61 VTop 2
SYMATTR InstName R4
SYMATTR Value 1k
SYMATTR SpiceLine tol=0.1
SYMBOL res -1168 -1024 R90
WINDOW 0 -38 60 VBottom 2
WINDOW 3 -31 43 VTop 2
SYMATTR InstName R_fil1
SYMATTR Value 1k
SYMBOL res -176 -736 R90
WINDOW 0 0 56 VBottom 2
WINDOW 3 32 56 VTop 2
SYMATTR InstName R5
SYMATTR Value 1k
SYMATTR SpiceLine tol=0.1
SYMBOL cap -192 -1120 R90
WINDOW 0 0 32 VBottom 2
WINDOW 3 32 32 VTop 2
SYMATTR InstName C2
SYMATTR Value 10n
SYMBOL sw -928 -656 R270
SYMATTR InstName S2
SYMATTR Value ""
SYMATTR SpiceModel MUXOFF
TEXT 328 -880 Left 2 !.tran 0 6m 0 0.01u uic
TEXT -640 -392 Left 2 !.model MUXOFF SW(Ron=3 Roff=1Meg Vt=0 Vh=0)
