Version 4
SHEET 1 1252 1040
WIRE 192 -1280 128 -1280
WIRE 288 -1280 256 -1280
WIRE 128 -1168 128 -1280
WIRE 192 -1168 128 -1168
WIRE 288 -1168 288 -1280
WIRE 288 -1168 272 -1168
WIRE 224 -1088 224 -1120
WIRE 288 -1072 288 -1168
WIRE 288 -1072 256 -1072
WIRE 336 -1072 288 -1072
WIRE 528 -1072 416 -1072
WIRE 128 -1056 128 -1168
WIRE 128 -1056 48 -1056
WIRE 192 -1056 128 -1056
WIRE 432 -1040 256 -1040
WIRE 528 -1040 528 -1072
WIRE -944 -1024 -992 -1024
WIRE -816 -1024 -880 -1024
WIRE -768 -1008 -768 -1056
WIRE 48 -960 48 -1056
WIRE 176 -928 144 -928
WIRE 288 -928 256 -928
WIRE -992 -912 -992 -1024
WIRE -944 -912 -992 -912
WIRE -816 -912 -816 -1024
WIRE -816 -912 -864 -912
WIRE 592 -912 592 -960
WIRE 224 -848 224 -880
WIRE 144 -832 144 -928
WIRE 192 -832 144 -832
WIRE -336 -816 -336 -896
WIRE 288 -816 288 -928
WIRE 288 -816 256 -816
WIRE 336 -816 288 -816
WIRE 432 -816 432 -1040
WIRE 432 -816 416 -816
WIRE 448 -816 432 -816
WIRE 592 -816 592 -832
WIRE 592 -816 528 -816
WIRE 736 -816 592 -816
WIRE 832 -816 736 -816
WIRE -896 -800 -896 -832
WIRE 48 -800 48 -880
WIRE 192 -800 48 -800
WIRE 1088 -800 1088 -848
WIRE -816 -784 -816 -912
WIRE -816 -784 -864 -784
WIRE -768 -784 -768 -928
WIRE -768 -784 -816 -784
WIRE 48 -784 48 -800
WIRE -1136 -768 -1184 -768
WIRE -1072 -768 -1136 -768
WIRE -992 -768 -992 -912
WIRE -928 -768 -992 -768
WIRE -704 -752 -864 -752
WIRE -592 -752 -624 -752
WIRE 592 -720 592 -816
WIRE 736 -720 736 -816
WIRE 832 -720 832 -816
WIRE -336 -672 -336 -736
WIRE 48 -640 48 -704
WIRE 592 -624 592 -656
WIRE 736 -624 736 -656
WIRE 736 -624 592 -624
WIRE 832 -624 832 -656
WIRE 832 -624 736 -624
WIRE 736 -592 736 -624
FLAG 1088 -720 0
FLAG 1088 -848 COM
FLAG 224 -784 0
FLAG 224 -1024 0
FLAG -896 -736 0
FLAG 224 -880 COM
FLAG 224 -1120 COM
FLAG -896 -832 COM
FLAG 528 -1040 0
FLAG 48 -640 PT1000_1
FLAG -336 -896 PT1000_1
FLAG -768 -1056 0
FLAG -1136 -704 0
FLAG -336 -672 0
FLAG 592 -960 COM
FLAG 736 -592 0
FLAG -592 -752 PT1000_1
FLAG -1184 -768 OUT
SYMBOL voltage 1088 -816 R0
WINDOW 123 0 0 Left 2
WINDOW 39 24 44 Left 2
SYMATTR SpiceLine Rser=0.1
SYMATTR InstName V3
SYMATTR Value 5
SYMBOL Opamps\\LTC6079 224 -816 R0
SYMATTR InstName U9
SYMBOL Opamps\\LTC6079 224 -1056 M0
SYMATTR InstName U10
SYMBOL Opamps\\LTC6079 -896 -768 M0
SYMATTR InstName U12
SYMBOL res 32 -976 R0
SYMATTR InstName R19
SYMATTR Value 26.1k
SYMBOL res 432 -832 R90
WINDOW 0 0 56 VBottom 2
WINDOW 3 32 56 VTop 2
SYMATTR InstName R20
SYMATTR Value 26.1k
SYMBOL res 544 -832 R90
WINDOW 0 0 56 VBottom 2
WINDOW 3 32 56 VTop 2
SYMATTR InstName R21
SYMATTR Value 26.1k
SYMBOL res 432 -1088 R90
WINDOW 0 0 56 VBottom 2
WINDOW 3 32 56 VTop 2
SYMATTR InstName R22
SYMATTR Value 26.1k
SYMBOL res 288 -1184 R90
WINDOW 0 0 56 VBottom 2
WINDOW 3 32 56 VTop 2
SYMATTR InstName R23
SYMATTR Value 26.1k
SYMBOL res -784 -1024 R0
SYMATTR InstName R24
SYMATTR Value 1k
SYMBOL res -848 -928 R90
WINDOW 0 0 56 VBottom 2
WINDOW 3 32 56 VTop 2
SYMATTR InstName R26
SYMATTR Value 26.1k
SYMBOL res 32 -800 R0
SYMATTR InstName R_analog_switch_1
SYMATTR Value 3
SYMBOL res -352 -832 R0
SYMATTR InstName R30
SYMATTR Value {1000*(1+0.0039083*temp)}
SYMBOL cap -1152 -768 R0
WINDOW 0 32 33 Left 2
SYMATTR InstName C4
SYMATTR Value 10n
SYMBOL res -976 -784 R90
WINDOW 0 0 56 VBottom 2
WINDOW 3 32 56 VTop 2
SYMATTR InstName R1
SYMATTR Value 1k
SYMBOL References\\LT1009 592 -688 R0
WINDOW 0 9 -75 Left 2
WINDOW 3 15 -48 Left 2
SYMATTR InstName U1
SYMBOL res 576 -928 R0
SYMATTR InstName R3
SYMATTR Value 2k
SYMBOL res -608 -768 R90
WINDOW 0 -5 -3 VBottom 2
WINDOW 3 32 56 VTop 2
SYMATTR InstName R_analog_switch_2
SYMATTR Value 3
SYMBOL cap 720 -720 R0
SYMATTR InstName C2
SYMATTR Value 100n
SYMBOL cap 816 -720 R0
SYMATTR InstName C3
SYMATTR Value 10n
SYMBOL cap 256 -1296 R90
WINDOW 0 0 32 VBottom 2
WINDOW 3 32 32 VTop 2
SYMATTR InstName C1
SYMATTR Value 10n
SYMBOL cap -880 -1040 R90
WINDOW 0 0 32 VBottom 2
WINDOW 3 32 32 VTop 2
SYMATTR InstName C5
SYMATTR Value 10n
SYMBOL res 272 -944 R90
WINDOW 0 0 56 VBottom 2
WINDOW 3 32 56 VTop 2
SYMATTR InstName R4
SYMATTR Value 1k
TEXT -608 -1008 Left 2 !.tran 0 5m 0 1u uic
TEXT -608 -1040 Left 2 !.step param temp -50 150 10
TEXT -1192 -1416 Left 2 ;The output voltage should be in range (2.5, 5) V, because offset of 2.5V will be substracted on ADC's differential input! (2.5V taken from ADC's reference).
