Version 4
SHEET 1 880 680
WIRE 256 -96 256 -144
WIRE 256 -96 16 -96
WIRE 544 -96 448 -96
WIRE 560 -96 544 -96
WIRE 448 -48 448 -96
WIRE 560 -48 560 -96
WIRE 256 16 256 -96
WIRE 96 64 48 64
WIRE 560 64 560 32
WIRE 560 64 416 64
WIRE 608 64 560 64
WIRE 48 96 48 64
WIRE 48 96 -80 96
WIRE 48 144 48 96
WIRE 96 144 48 144
WIRE 448 144 448 32
WIRE 448 144 416 144
WIRE 512 144 448 144
WIRE 16 224 16 -96
WIRE 96 224 16 224
WIRE 448 224 416 224
WIRE 256 304 256 272
FLAG 256 -224 0
FLAG -80 176 0
FLAG 256 304 0
FLAG 512 224 0
FLAG 608 144 0
FLAG 448 304 0
FLAG 544 -176 0
SYMBOL SpecialFunctions\\LTC4300A-1 256 144 R0
SYMATTR InstName U1
SYMBOL voltage 256 -128 R180
WINDOW 0 24 96 Left 2
WINDOW 3 24 16 Left 2
WINDOW 123 0 0 Left 2
WINDOW 39 0 0 Left 2
SYMATTR InstName V1
SYMATTR Value PULSE(0 3.3 0 1n 1n 50m 100m)
SYMBOL voltage -80 80 R0
WINDOW 3 -235 140 Left 2
WINDOW 123 0 0 Left 2
WINDOW 39 0 0 Left 2
SYMATTR Value PULSE(0 5 0 1u 1u 1m 2m)
SYMATTR InstName V2
SYMBOL res 592 48 R0
SYMATTR InstName R1
SYMATTR Value 1meg
SYMBOL res 496 128 R0
SYMATTR InstName R2
SYMATTR Value 1meg
SYMBOL res 432 208 R0
SYMATTR InstName R3
SYMATTR Value 1k
SYMBOL res 432 -64 R0
SYMATTR InstName R4
SYMATTR Value 10k
SYMBOL res 544 -64 R0
SYMATTR InstName R5
SYMATTR Value 10k
SYMBOL voltage 544 -80 R180
WINDOW 0 24 96 Left 2
WINDOW 3 24 16 Left 2
WINDOW 123 0 0 Left 2
WINDOW 39 0 0 Left 2
SYMATTR InstName V3
SYMATTR Value 5
TEXT -320 328 Left 2 !.tran 200m
